*SPEF "ieee 1481-1999"
*DESIGN "svm"
*DATE "11:11:11 Fri 11 11, 1111"
*VENDOR "OpenRCX"
*PROGRAM "Parallel Extraction"
*VERSION "1.0"
*DESIGN_FLOW "NAME_SCOPE LOCAL" "PIN_CAP NONE"
*DIVIDER /
*DELIMITER :
*BUS_DELIMITER []
*T_UNIT 1 NS
*C_UNIT 1 PF
*R_UNIT 1 OHM
*L_UNIT 1 HENRY

*NAME_MAP
*3 clk
*4 halt
*5 in_valid
*6 periodTop[0]
*7 periodTop[10]
*8 periodTop[11]
*9 periodTop[12]
*10 periodTop[13]
*11 periodTop[14]
*12 periodTop[15]
*13 periodTop[1]
*14 periodTop[2]
*15 periodTop[3]
*16 periodTop[4]
*17 periodTop[5]
*18 periodTop[6]
*19 periodTop[7]
*20 periodTop[8]
*21 periodTop[9]
*22 pwmA
*23 pwmB
*24 pwmC
*25 ready
*26 rstb
*27 vA[0]
*28 vA[10]
*29 vA[11]
*30 vA[12]
*31 vA[13]
*32 vA[14]
*33 vA[15]
*34 vA[1]
*35 vA[2]
*36 vA[3]
*37 vA[4]
*38 vA[5]
*39 vA[6]
*40 vA[7]
*41 vA[8]
*42 vA[9]
*43 vB[0]
*44 vB[10]
*45 vB[11]
*46 vB[12]
*47 vB[13]
*48 vB[14]
*49 vB[15]
*50 vB[1]
*51 vB[2]
*52 vB[3]
*53 vB[4]
*54 vB[5]
*55 vB[6]
*56 vB[7]
*57 vB[8]
*58 vB[9]
*59 vC[0]
*60 vC[10]
*61 vC[11]
*62 vC[12]
*63 vC[13]
*64 vC[14]
*65 vC[15]
*66 vC[1]
*67 vC[2]
*68 vC[3]
*69 vC[4]
*70 vC[5]
*71 vC[6]
*72 vC[7]
*73 vC[8]
*74 vC[9]
*75 _0000_
*76 _0001_
*77 _0002_
*78 _0094_
*79 _0095_
*80 _0096_
*81 _0097_
*82 _0098_
*83 _0099_
*84 _0100_
*85 _0101_
*86 _0102_
*87 _0103_
*88 _0104_
*89 _0105_
*90 _0106_
*91 _0107_
*92 _0108_
*93 _0109_
*94 _0110_
*95 _0111_
*96 _0112_
*97 _0113_
*98 _0114_
*99 _0115_
*100 _0116_
*101 _0117_
*102 _0118_
*103 _0119_
*104 _0120_
*105 _0121_
*106 _0122_
*107 _0123_
*108 _0124_
*109 _0125_
*110 _0126_
*111 _0127_
*112 _0128_
*113 _0129_
*114 _0130_
*115 _0131_
*116 _0132_
*117 _0133_
*118 _0134_
*119 _0135_
*120 _0136_
*121 _0137_
*122 _0138_
*123 _0139_
*124 _0140_
*125 _0141_
*126 _0142_
*127 _0143_
*128 _0144_
*129 _0145_
*130 _0146_
*131 _0147_
*132 _0148_
*133 _0149_
*134 _0150_
*135 _0151_
*136 _0152_
*137 _0153_
*138 _0154_
*139 _0155_
*140 _0156_
*141 _0157_
*142 _0158_
*143 _0159_
*144 _0160_
*145 _0161_
*146 _0162_
*147 _0163_
*148 _0164_
*149 _0165_
*150 _0166_
*151 _0167_
*152 _0168_
*153 _0169_
*154 _0170_
*155 _0171_
*156 _0172_
*157 _0173_
*158 _0174_
*159 _0175_
*160 _0176_
*161 _0177_
*162 _0178_
*163 _0179_
*164 _0180_
*165 _0181_
*166 _0182_
*167 _0183_
*168 _0184_
*169 _0185_
*170 _0186_
*171 _0187_
*172 _0188_
*173 _0189_
*174 _0190_
*175 _0191_
*176 _0192_
*177 _0193_
*178 _0194_
*179 _0195_
*180 _0196_
*181 _0197_
*182 _0198_
*183 _0199_
*184 _0200_
*185 _0201_
*186 _0202_
*187 _0203_
*188 _0204_
*189 _0205_
*190 _0206_
*191 _0207_
*192 _0208_
*193 _0209_
*194 _0210_
*195 _0211_
*196 _0212_
*197 _0213_
*198 _0214_
*199 _0215_
*200 _0216_
*201 _0217_
*202 _0218_
*203 _0219_
*204 _0220_
*205 _0221_
*206 _0222_
*207 _0223_
*208 _0224_
*209 _0225_
*210 _0226_
*211 _0227_
*212 _0228_
*213 _0229_
*214 _0230_
*215 _0231_
*216 _0232_
*217 _0233_
*218 _0234_
*219 _0235_
*220 _0236_
*221 _0237_
*222 _0238_
*223 _0239_
*224 _0240_
*225 _0241_
*226 _0242_
*227 _0243_
*228 _0244_
*229 _0245_
*230 _0246_
*231 _0247_
*232 _0248_
*233 _0249_
*234 _0250_
*235 _0251_
*236 _0252_
*237 _0253_
*238 _0254_
*239 _0255_
*240 _0256_
*241 _0257_
*242 _0258_
*243 _0259_
*244 _0260_
*245 _0261_
*246 _0262_
*247 _0263_
*248 _0264_
*249 _0265_
*250 _0266_
*251 _0267_
*252 _0268_
*253 _0269_
*254 _0270_
*255 _0271_
*256 _0272_
*257 _0273_
*258 _0274_
*259 _0275_
*260 _0276_
*261 _0277_
*262 _0278_
*263 _0279_
*264 _0280_
*265 _0281_
*266 _0282_
*267 _0283_
*268 _0284_
*269 _0285_
*270 _0286_
*271 _0287_
*272 _0288_
*273 _0289_
*274 _0290_
*275 _0291_
*276 _0292_
*277 _0293_
*278 _0294_
*279 _0295_
*280 _0296_
*281 _0297_
*282 _0298_
*283 _0299_
*284 _0300_
*285 _0301_
*286 _0302_
*287 _0303_
*288 _0304_
*289 _0305_
*290 _0306_
*291 _0307_
*292 _0308_
*293 _0309_
*294 _0310_
*295 _0311_
*296 _0312_
*297 _0313_
*298 _0314_
*299 _0315_
*300 _0316_
*301 _0317_
*302 _0318_
*303 _0319_
*304 _0320_
*305 _0321_
*306 _0322_
*307 _0323_
*308 _0324_
*309 _0325_
*310 _0326_
*311 _0327_
*312 _0328_
*313 _0329_
*314 _0330_
*315 _0331_
*316 _0332_
*317 _0333_
*318 _0334_
*319 _0335_
*320 _0336_
*321 _0337_
*322 _0338_
*323 _0339_
*324 _0340_
*325 _0341_
*326 _0342_
*327 _0343_
*328 _0344_
*329 _0345_
*330 _0346_
*331 _0347_
*332 _0348_
*333 _0349_
*334 _0350_
*335 _0351_
*336 _0352_
*337 _0353_
*338 _0354_
*339 _0355_
*340 _0356_
*341 _0357_
*342 _0358_
*343 _0359_
*344 _0360_
*345 _0361_
*346 _0362_
*347 _0363_
*348 _0364_
*349 _0365_
*350 _0366_
*351 _0367_
*352 _0368_
*353 _0369_
*354 _0370_
*355 _0371_
*356 _0372_
*357 _0373_
*358 _0374_
*359 _0375_
*360 _0376_
*361 _0377_
*362 _0378_
*363 _0379_
*364 _0380_
*365 _0381_
*366 _0382_
*367 _0383_
*368 _0384_
*369 _0385_
*370 _0386_
*371 _0387_
*372 _0388_
*373 _0389_
*374 _0390_
*375 _0391_
*376 _0392_
*377 _0393_
*378 _0394_
*379 _0395_
*380 _0396_
*381 _0397_
*382 _0398_
*383 _0399_
*384 _0400_
*385 _0401_
*386 _0402_
*387 _0403_
*388 _0404_
*389 _0405_
*390 _0406_
*391 _0407_
*392 _0408_
*393 _0409_
*394 _0410_
*395 _0411_
*396 _0412_
*397 _0413_
*398 _0414_
*399 _0415_
*400 _0416_
*401 _0417_
*402 _0418_
*403 _0419_
*404 _0420_
*405 _0421_
*406 _0422_
*407 _0423_
*408 _0424_
*409 _0425_
*410 _0426_
*411 _0427_
*412 _0428_
*413 _0429_
*414 _0430_
*415 _0431_
*416 _0432_
*417 _0433_
*418 _0434_
*419 _0435_
*420 _0436_
*421 _0437_
*422 _0438_
*423 _0439_
*424 _0440_
*425 _0441_
*426 _0442_
*427 _0443_
*428 _0444_
*429 _0445_
*430 _0446_
*431 _0447_
*432 _0448_
*433 _0449_
*434 _0450_
*435 _0451_
*436 _0452_
*437 _0453_
*438 _0454_
*439 _0455_
*440 _0456_
*441 _0457_
*442 _0458_
*443 _0459_
*444 _0460_
*445 _0461_
*446 _0462_
*447 _0463_
*448 _0464_
*449 _0465_
*450 _0466_
*451 _0467_
*452 _0468_
*453 _0469_
*454 _0470_
*455 _0471_
*456 _0472_
*457 _0473_
*458 _0474_
*459 _0475_
*460 _0476_
*461 _0477_
*462 _0478_
*463 _0479_
*464 _0480_
*465 _0481_
*466 _0482_
*467 _0483_
*468 _0484_
*469 _0485_
*470 _0486_
*471 _0487_
*472 _0488_
*473 _0489_
*474 _0490_
*475 _0491_
*476 _0492_
*477 _0493_
*478 _0494_
*479 _0495_
*480 _0496_
*481 _0497_
*482 _0498_
*483 _0499_
*484 _0500_
*485 _0501_
*486 _0502_
*487 _0503_
*488 _0504_
*489 _0505_
*490 _0506_
*491 _0507_
*492 _0508_
*493 _0509_
*494 _0510_
*495 _0511_
*496 _0512_
*497 _0513_
*498 _0514_
*499 _0515_
*500 _0516_
*501 _0517_
*502 _0518_
*503 _0519_
*504 _0520_
*505 _0521_
*506 _0522_
*507 _0523_
*508 _0524_
*509 _0525_
*510 _0526_
*511 _0527_
*512 _0528_
*513 _0529_
*514 _0530_
*515 _0531_
*516 _0532_
*517 _0533_
*518 _0534_
*519 _0535_
*520 _0536_
*521 _0537_
*522 _0538_
*523 _0539_
*524 _0540_
*525 _0541_
*526 _0542_
*527 _0543_
*528 _0544_
*529 _0545_
*530 _0546_
*531 _0547_
*532 _0548_
*533 _0549_
*534 _0550_
*535 _0551_
*536 _0552_
*537 _0553_
*538 _0554_
*539 _0555_
*540 _0556_
*541 _0557_
*542 _0558_
*543 _0559_
*544 _0560_
*545 _0561_
*546 _0562_
*547 _0563_
*548 _0564_
*549 _0565_
*550 _0566_
*551 _0567_
*552 _0568_
*553 _0569_
*554 _0570_
*555 _0571_
*556 _0572_
*557 _0573_
*558 _0574_
*559 _0575_
*560 _0576_
*561 _0577_
*562 _0578_
*563 _0579_
*564 _0580_
*565 _0581_
*566 _0582_
*567 _0583_
*568 _0584_
*569 _0585_
*570 _0586_
*571 _0587_
*572 _0588_
*573 _0589_
*574 _0590_
*575 _0591_
*576 _0592_
*577 _0593_
*578 _0594_
*579 _0595_
*580 _0596_
*581 _0597_
*582 _0598_
*583 _0599_
*584 _0600_
*585 _0601_
*586 _0602_
*587 _0603_
*588 _0604_
*589 _0605_
*590 _0606_
*591 _0607_
*592 _0608_
*593 _0609_
*594 _0610_
*595 _0611_
*596 _0612_
*597 _0613_
*598 _0614_
*599 _0615_
*600 _0616_
*601 _0617_
*602 _0618_
*603 _0619_
*604 _0620_
*605 _0621_
*606 _0622_
*607 _0623_
*608 _0624_
*609 _0625_
*610 _0626_
*611 _0627_
*612 _0628_
*613 _0629_
*614 _0630_
*615 _0631_
*616 _0632_
*617 _0633_
*618 _0634_
*619 _0635_
*620 _0636_
*621 _0637_
*622 _0638_
*623 _0639_
*624 _0640_
*625 _0641_
*626 _0642_
*627 _0643_
*628 _0644_
*629 _0645_
*630 _0646_
*631 _0647_
*632 _0648_
*633 _0649_
*634 _0650_
*635 _0651_
*636 _0652_
*637 _0653_
*638 _0654_
*639 _0655_
*640 _0656_
*641 _0657_
*642 _0658_
*643 _0659_
*644 _0660_
*645 _0661_
*646 _0662_
*647 _0663_
*648 _0664_
*649 _0665_
*650 _0666_
*651 _0667_
*652 _0668_
*653 _0669_
*654 _0670_
*655 _0671_
*656 _0672_
*657 _0673_
*658 _0674_
*659 _0675_
*660 _0676_
*661 _0677_
*662 _0678_
*663 _0679_
*664 _0680_
*665 _0681_
*666 _0682_
*667 _0683_
*668 _0684_
*669 _0685_
*670 _0686_
*671 _0687_
*672 _0688_
*673 _0689_
*674 _0690_
*675 _0691_
*676 _0692_
*677 _0693_
*678 _0694_
*679 _0695_
*680 _0696_
*681 _0697_
*682 _0698_
*683 _0699_
*684 _0700_
*685 _0701_
*686 _0702_
*687 _0703_
*688 _0704_
*689 _0705_
*690 _0706_
*691 _0707_
*692 _0708_
*693 _0709_
*694 _0710_
*695 _0711_
*696 _0712_
*697 _0713_
*698 _0714_
*699 _0715_
*700 _0716_
*701 _0717_
*702 _0718_
*703 _0719_
*704 _0720_
*705 _0721_
*706 _0722_
*707 _0723_
*708 _0724_
*709 _0725_
*710 _0726_
*711 _0727_
*712 _0728_
*713 _0729_
*714 _0730_
*715 _0731_
*716 _0732_
*717 _0733_
*718 _0734_
*719 _0735_
*720 _0736_
*721 _0737_
*722 _0738_
*723 _0739_
*724 _0740_
*725 _0741_
*726 _0742_
*727 _0743_
*728 _0744_
*729 _0745_
*730 _0746_
*731 _0747_
*732 _0748_
*733 _0749_
*734 _0750_
*735 _0751_
*736 _0752_
*737 _0753_
*738 _0754_
*739 _0755_
*740 _0756_
*741 _0757_
*742 _0758_
*743 _0759_
*744 _0760_
*745 _0761_
*746 _0762_
*747 _0763_
*748 _0764_
*749 _0765_
*750 _0766_
*751 _0767_
*752 _0768_
*753 _0769_
*754 _0770_
*755 _0771_
*756 _0772_
*757 _0773_
*758 _0774_
*759 _0775_
*760 _0776_
*761 _0777_
*762 _0778_
*763 _0779_
*764 _0780_
*765 _0781_
*766 _0782_
*767 _0783_
*768 _0784_
*769 _0785_
*770 _0786_
*771 _0787_
*772 _0788_
*773 _0789_
*774 _0790_
*775 _0791_
*776 _0792_
*777 _0793_
*778 _0794_
*779 _0795_
*780 _0796_
*781 _0797_
*782 _0798_
*783 _0799_
*784 _0800_
*785 _0801_
*786 _0802_
*787 _0803_
*788 _0804_
*789 _0805_
*790 _0806_
*791 _0807_
*792 _0808_
*793 _0809_
*794 _0810_
*795 _0811_
*796 _0812_
*797 _0813_
*798 _0814_
*799 _0815_
*800 _0816_
*801 _0817_
*802 _0818_
*803 _0819_
*804 _0820_
*805 _0821_
*806 _0822_
*807 _0823_
*808 _0824_
*809 _0825_
*810 _0826_
*811 _0827_
*812 _0828_
*813 _0829_
*814 _0830_
*815 _0831_
*816 _0832_
*817 _0833_
*818 _0834_
*819 _0835_
*820 _0836_
*821 _0837_
*822 _0838_
*823 _0839_
*824 _0840_
*825 _0841_
*826 _0842_
*827 _0843_
*828 _0844_
*829 _0845_
*830 _0846_
*831 _0847_
*832 _0848_
*833 _0849_
*834 _0850_
*835 _0851_
*836 _0852_
*837 _0853_
*838 _0854_
*839 _0855_
*840 _0856_
*841 _0857_
*842 _0858_
*843 _0859_
*844 _0860_
*845 _0861_
*846 _0862_
*847 _0863_
*848 _0864_
*849 _0865_
*850 _0866_
*851 _0867_
*852 _0868_
*853 _0869_
*854 _0870_
*855 _0871_
*856 _0872_
*857 _0873_
*858 _0874_
*859 _0875_
*860 _0876_
*861 _0877_
*862 _0878_
*863 _0879_
*864 _0880_
*865 _0881_
*866 _0882_
*867 _0883_
*868 _0884_
*869 _0885_
*870 _0886_
*871 _0887_
*872 _0888_
*873 _0889_
*874 _0890_
*875 _0891_
*876 _0892_
*877 _0893_
*878 _0894_
*879 _0895_
*880 _0896_
*881 _0897_
*882 _0898_
*883 _0899_
*884 _0900_
*885 _0901_
*886 _0902_
*887 _0903_
*888 _0904_
*889 _0905_
*890 _0906_
*891 _0907_
*892 _0908_
*893 _0909_
*894 _0910_
*895 _0911_
*896 _0912_
*897 _0913_
*898 _0914_
*899 _0915_
*900 _0916_
*901 _0917_
*902 _0918_
*903 _0919_
*904 _0920_
*905 _0921_
*906 _0922_
*907 _0923_
*908 _0924_
*909 _0925_
*910 _0926_
*911 _0927_
*912 _0928_
*913 _0929_
*914 _0930_
*915 _0931_
*916 _0932_
*917 _0933_
*918 _0934_
*919 _0935_
*920 _0936_
*921 _0937_
*922 _0938_
*923 _0939_
*924 _0940_
*925 _0941_
*926 _0942_
*927 _0943_
*928 _0944_
*929 _0945_
*930 _0946_
*931 _0947_
*932 _0948_
*933 _0949_
*934 _0950_
*935 _0951_
*936 _0952_
*937 _0953_
*938 _0954_
*939 _0955_
*940 _0956_
*941 _0957_
*942 _0958_
*943 _0959_
*944 _0960_
*945 _0961_
*946 _0962_
*947 _0963_
*948 _0964_
*949 _0965_
*950 _0966_
*951 _0967_
*952 _0968_
*953 _0969_
*954 _0970_
*955 _0971_
*956 _0972_
*957 _0973_
*958 _0974_
*959 _0975_
*960 _0976_
*961 _0977_
*962 _0978_
*963 _0979_
*964 _0980_
*965 _0981_
*966 _0982_
*967 _0983_
*968 _0984_
*969 _0985_
*970 _0986_
*971 _0987_
*972 _0988_
*973 _0989_
*974 _0990_
*975 _0991_
*976 _0992_
*977 _0993_
*978 _0994_
*979 _0995_
*980 _0996_
*981 _0997_
*982 _0998_
*983 _0999_
*984 _1000_
*985 _1001_
*986 _1002_
*987 _1003_
*988 _1004_
*989 _1005_
*990 _1006_
*991 _1007_
*992 _1008_
*993 _1009_
*994 _1010_
*995 _1011_
*996 _1012_
*997 _1013_
*998 _1014_
*999 _1015_
*1000 _1016_
*1001 _1017_
*1002 _1018_
*1003 _1019_
*1004 _1020_
*1005 _1021_
*1006 _1022_
*1007 _1023_
*1008 _1024_
*1009 _1025_
*1010 _1026_
*1011 _1027_
*1012 _1028_
*1013 _1029_
*1014 _1030_
*1015 _1031_
*1016 _1032_
*1017 _1033_
*1018 _1034_
*1019 _1035_
*1020 _1036_
*1021 _1037_
*1022 _1038_
*1023 _1039_
*1024 _1040_
*1025 _1041_
*1026 _1042_
*1027 _1043_
*1028 _1044_
*1029 _1045_
*1030 _1046_
*1031 _1047_
*1032 _1048_
*1033 _1049_
*1034 _1050_
*1035 _1051_
*1036 _1052_
*1037 _1053_
*1038 _1054_
*1039 _1055_
*1040 _1056_
*1041 _1057_
*1042 _1058_
*1043 _1059_
*1044 _1060_
*1045 _1061_
*1046 _1062_
*1047 _1063_
*1048 _1064_
*1049 _1065_
*1050 _1066_
*1051 _1067_
*1052 _1068_
*1053 _1069_
*1054 _1070_
*1055 _1071_
*1056 _1072_
*1057 _1073_
*1058 _1074_
*1059 _1075_
*1060 _1076_
*1061 _1077_
*1062 _1078_
*1063 _1079_
*1064 _1080_
*1065 _1081_
*1066 _1082_
*1067 _1083_
*1068 _1084_
*1069 _1085_
*1070 _1086_
*1071 _1087_
*1072 _1088_
*1073 _1089_
*1074 _1090_
*1075 _1091_
*1076 _1092_
*1077 _1093_
*1078 _1094_
*1079 _1095_
*1080 _1096_
*1081 _1097_
*1082 _1098_
*1083 _1099_
*1084 _1100_
*1085 _1101_
*1086 _1102_
*1087 _1103_
*1088 _1104_
*1089 _1105_
*1090 _1106_
*1091 _1107_
*1092 _1108_
*1093 _1109_
*1094 _1110_
*1095 _1111_
*1096 _1112_
*1097 _1113_
*1098 _1114_
*1099 _1115_
*1100 _1116_
*1101 _1117_
*1102 _1118_
*1103 _1119_
*1104 _1120_
*1105 _1121_
*1106 _1122_
*1107 _1123_
*1108 _1124_
*1109 _1125_
*1110 _1126_
*1111 _1127_
*1112 _1128_
*1113 _1129_
*1114 _1130_
*1115 _1131_
*1116 _1132_
*1117 _1133_
*1118 _1134_
*1119 _1135_
*1120 _1136_
*1121 _1137_
*1122 _1138_
*1123 _1139_
*1124 _1140_
*1125 _1141_
*1126 _1142_
*1127 _1143_
*1128 _1144_
*1129 _1145_
*1130 _1146_
*1131 _1147_
*1132 _1148_
*1133 _1149_
*1134 _1150_
*1135 _1151_
*1136 _1152_
*1137 _1153_
*1138 _1154_
*1139 _1155_
*1140 _1156_
*1141 _1157_
*1142 _1158_
*1143 _1159_
*1144 _1160_
*1145 _1161_
*1146 _1162_
*1147 _1163_
*1148 _1164_
*1149 _1165_
*1150 _1166_
*1151 _1167_
*1152 _1168_
*1153 _1169_
*1154 _1170_
*1155 _1171_
*1156 _1172_
*1157 _1173_
*1158 _1174_
*1159 _1175_
*1160 _1176_
*1161 _1177_
*1162 _1178_
*1163 _1179_
*1164 _1180_
*1165 _1181_
*1166 _1182_
*1167 _1183_
*1168 _1184_
*1169 _1185_
*1170 _1186_
*1171 _1187_
*1172 _1188_
*1173 _1189_
*1174 _1190_
*1175 _1191_
*1176 _1192_
*1177 _1193_
*1178 _1194_
*1179 _1195_
*1180 _1196_
*1181 _1197_
*1182 _1198_
*1183 _1199_
*1184 _1200_
*1185 _1201_
*1186 _1202_
*1187 _1203_
*1188 _1204_
*1189 _1205_
*1190 _1206_
*1191 _1207_
*1192 _1208_
*1193 _1209_
*1194 _1210_
*1195 _1211_
*1196 _1212_
*1197 _1213_
*1198 _1214_
*1199 _1215_
*1200 _1216_
*1201 _1217_
*1202 _1218_
*1203 _1219_
*1204 _1220_
*1205 _1221_
*1206 _1222_
*1207 _1223_
*1208 _1224_
*1209 _1225_
*1210 _1226_
*1211 _1227_
*1212 _1228_
*1213 _1229_
*1214 _1230_
*1215 _1231_
*1216 _1232_
*1217 _1233_
*1218 _1234_
*1219 _1235_
*1220 _1236_
*1221 _1237_
*1222 _1238_
*1223 _1239_
*1224 _1240_
*1225 _1241_
*1226 _1242_
*1227 _1243_
*1228 _1244_
*1229 _1245_
*1230 _1246_
*1231 _1247_
*1232 _1248_
*1233 _1249_
*1234 _1250_
*1235 _1251_
*1236 _1252_
*1237 _1253_
*1238 _1254_
*1239 _1255_
*1240 _1256_
*1241 _1257_
*1242 _1258_
*1243 _1259_
*1244 _1260_
*1245 _1261_
*1246 _1262_
*1247 _1263_
*1248 _1264_
*1249 _1265_
*1250 _1266_
*1251 _1267_
*1252 _1268_
*1253 _1269_
*1254 _1270_
*1255 _1271_
*1256 _1272_
*1257 _1273_
*1258 _1274_
*1259 _1275_
*1260 _1276_
*1261 _1277_
*1262 _1278_
*1263 _1279_
*1264 _1280_
*1265 _1281_
*1266 _1282_
*1267 _1283_
*1268 _1284_
*1269 _1285_
*1270 _1286_
*1271 _1287_
*1272 _1288_
*1273 _1289_
*1274 _1290_
*1275 _1291_
*1276 _1292_
*1277 _1293_
*1278 _1294_
*1279 _1295_
*1280 _1296_
*1281 _1297_
*1282 _1298_
*1283 _1299_
*1284 _1300_
*1285 _1301_
*1286 _1302_
*1287 _1303_
*1288 _1304_
*1289 _1305_
*1290 _1306_
*1291 _1307_
*1292 _1308_
*1293 _1309_
*1294 _1310_
*1295 _1311_
*1296 _1312_
*1297 _1313_
*1298 _1314_
*1299 _1315_
*1300 _1316_
*1301 _1317_
*1302 _1318_
*1303 _1319_
*1304 _1320_
*1305 _1321_
*1306 _1322_
*1307 _1323_
*1308 _1324_
*1309 _1325_
*1310 _1326_
*1311 _1327_
*1312 _1328_
*1313 _1329_
*1314 _1330_
*1315 _1331_
*1316 _1332_
*1317 _1333_
*1318 _1334_
*1319 _1335_
*1320 _1336_
*1321 _1337_
*1322 _1338_
*1323 _1339_
*1324 _1340_
*1325 _1341_
*1326 _1342_
*1327 _1343_
*1328 _1344_
*1329 _1345_
*1330 _1346_
*1331 _1347_
*1332 _1348_
*1333 _1349_
*1334 _1350_
*1335 _1351_
*1336 _1352_
*1337 _1353_
*1338 _1354_
*1339 _1355_
*1340 _1356_
*1341 _1357_
*1342 _1358_
*1343 _1359_
*1344 _1360_
*1345 _1361_
*1346 _1362_
*1347 _1363_
*1348 _1364_
*1349 _1365_
*1350 _1366_
*1351 _1367_
*1352 _1368_
*1353 _1369_
*1354 _1370_
*1355 _1371_
*1356 _1372_
*1357 _1373_
*1358 _1374_
*1359 _1375_
*1360 _1376_
*1361 _1377_
*1362 _1378_
*1363 _1379_
*1364 _1380_
*1365 _1381_
*1366 _1382_
*1367 _1383_
*1368 _1384_
*1369 _1385_
*1370 _1386_
*1371 _1387_
*1372 _1388_
*1373 _1389_
*1374 _1390_
*1375 _1391_
*1376 _1392_
*1377 _1393_
*1378 _1394_
*1379 _1395_
*1380 _1396_
*1381 _1397_
*1382 _1398_
*1383 _1399_
*1384 _1400_
*1385 _1401_
*1386 _1402_
*1387 _1403_
*1388 _1404_
*1389 _1405_
*1390 _1406_
*1391 _1407_
*1392 _1408_
*1393 _1409_
*1394 _1410_
*1395 _1411_
*1396 _1412_
*1397 _1413_
*1398 _1414_
*1399 _1415_
*1400 _1416_
*1401 _1417_
*1402 _1418_
*1403 _1419_
*1404 _1420_
*1405 _1421_
*1406 _1422_
*1407 _1423_
*1408 _1424_
*1409 _1425_
*1410 _1426_
*1411 _1427_
*1412 _1428_
*1413 _1429_
*1414 _1430_
*1415 _1431_
*1416 _1432_
*1417 _1433_
*1418 _1434_
*1419 _1435_
*1420 _1436_
*1421 _1437_
*1422 _1438_
*1423 _1439_
*1424 _1440_
*1425 _1441_
*1426 _1442_
*1427 _1443_
*1428 _1444_
*1429 _1445_
*1430 _1446_
*1431 _1447_
*1432 _1448_
*1433 _1449_
*1434 _1450_
*1435 _1451_
*1436 _1452_
*1437 _1453_
*1438 _1454_
*1439 _1455_
*1440 _1456_
*1441 _1457_
*1442 _1458_
*1443 _1459_
*1444 _1460_
*1445 _1461_
*1446 _1462_
*1447 _1463_
*1448 _1464_
*1449 _1465_
*1450 _1466_
*1451 _1467_
*1452 _1468_
*1453 _1469_
*1454 _1470_
*1455 _1471_
*1456 _1472_
*1457 _1473_
*1458 _1474_
*1459 _1475_
*1460 _1476_
*1461 _1477_
*1462 _1478_
*1463 _1479_
*1464 _1480_
*1465 _1481_
*1466 _1482_
*1467 _1483_
*1468 _1484_
*1469 _1485_
*1470 _1486_
*1471 _1487_
*1472 _1488_
*1473 _1489_
*1474 _1490_
*1475 _1491_
*1476 _1492_
*1477 _1493_
*1478 _1494_
*1479 _1495_
*1480 _1496_
*1481 _1497_
*1482 _1498_
*1483 _1499_
*1484 _1500_
*1485 _1501_
*1486 _1502_
*1487 _1503_
*1488 _1504_
*1489 _1505_
*1490 _1506_
*1491 _1507_
*1492 _1508_
*1493 _1509_
*1494 _1510_
*1495 _1511_
*1496 _1512_
*1497 _1513_
*1498 _1514_
*1499 _1515_
*1500 _1516_
*1501 _1517_
*1502 _1518_
*1503 _1519_
*1504 _1520_
*1505 _1521_
*1506 _1522_
*1507 _1523_
*1508 _1524_
*1509 _1525_
*1510 _1526_
*1511 _1527_
*1512 _1528_
*1513 _1529_
*1514 _1530_
*1515 _1531_
*1516 _1532_
*1517 _1533_
*1518 _1534_
*1519 _1535_
*1520 _1536_
*1521 _1537_
*1522 _1538_
*1523 _1539_
*1524 _1540_
*1525 _1541_
*1526 _1542_
*1527 _1543_
*1528 _1544_
*1529 _1545_
*1530 _1546_
*1531 _1547_
*1532 _1548_
*1533 _1549_
*1534 _1550_
*1535 _1551_
*1536 _1552_
*1537 _1553_
*1538 _1554_
*1539 _1555_
*1540 _1556_
*1541 _1557_
*1542 _1558_
*1543 _1559_
*1544 _1560_
*1545 _1561_
*1546 _1562_
*1547 _1563_
*1548 _1564_
*1549 _1565_
*1550 _1566_
*1551 _1567_
*1552 _1568_
*1553 _1569_
*1554 _1570_
*1555 _1571_
*1556 _1572_
*1557 _1573_
*1558 _1574_
*1559 _1575_
*1560 _1576_
*1561 _1577_
*1562 _1578_
*1563 _1579_
*1564 _1580_
*1565 _1581_
*1566 _1582_
*1567 _1583_
*1568 _1584_
*1569 _1585_
*1570 _1586_
*1571 _1587_
*1572 _1588_
*1573 _1589_
*1574 _1590_
*1575 _1591_
*1576 _1592_
*1577 _1593_
*1578 _1594_
*1579 _1595_
*1580 _1596_
*1581 _1597_
*1582 _1598_
*1583 _1599_
*1584 _1600_
*1585 _1601_
*1586 _1602_
*1587 _1603_
*1588 _1604_
*1589 _1605_
*1590 _1606_
*1591 _1607_
*1592 _1608_
*1593 _1609_
*1594 _1610_
*1595 _1611_
*1596 _1612_
*1597 _1613_
*1598 _1614_
*1599 _1615_
*1600 _1616_
*1601 _1617_
*1602 _1618_
*1603 _1619_
*1604 _1620_
*1605 _1621_
*1606 _1622_
*1607 _1623_
*1608 _1624_
*1609 _1625_
*1610 _1626_
*1611 _1627_
*1612 _1628_
*1613 _1629_
*1614 _1630_
*1615 _1631_
*1616 _1632_
*1617 _1633_
*1618 _1634_
*1619 _1635_
*1620 _1636_
*1621 _1637_
*1622 _1638_
*1623 _1639_
*1624 _1640_
*1625 _1641_
*1626 _1642_
*1627 _1643_
*1628 _1644_
*1629 _1645_
*1630 _1646_
*1631 _1647_
*1632 _1648_
*1633 _1649_
*1634 _1650_
*1635 _1651_
*1636 _1652_
*1637 _1653_
*1638 _1654_
*1639 _1655_
*1640 _1656_
*1641 _1657_
*1642 _1658_
*1643 _1659_
*1644 _1660_
*1645 _1661_
*1646 _1662_
*1647 _1663_
*1648 _1664_
*1649 _1665_
*1650 _1666_
*1651 _1667_
*1652 _1668_
*1653 _1669_
*1654 _1670_
*1655 _1671_
*1656 _1672_
*1657 _1673_
*1658 _1674_
*1659 _1675_
*1660 _1676_
*1661 _1677_
*1662 _1678_
*1663 _1679_
*1664 _1680_
*1665 _1681_
*1666 _1682_
*1667 _1683_
*1668 _1684_
*1669 _1685_
*1670 _1686_
*1671 _1687_
*1672 _1688_
*1673 _1689_
*1674 _1690_
*1675 _1691_
*1676 _1692_
*1677 _1693_
*1678 _1694_
*1679 _1695_
*1680 _1696_
*1681 _1697_
*1682 _1698_
*1683 _1699_
*1684 _1700_
*1685 _1701_
*1686 _1702_
*1687 _1703_
*1688 _1704_
*1689 _1705_
*1690 _1706_
*1691 _1707_
*1692 _1708_
*1693 _1709_
*1694 _1710_
*1695 _1711_
*1696 _1712_
*1697 _1713_
*1698 _1714_
*1699 _1715_
*1700 _1716_
*1701 _1717_
*1702 _1718_
*1703 _1719_
*1704 _1720_
*1705 _1721_
*1706 _1722_
*1707 _1723_
*1708 _1724_
*1709 _1725_
*1710 _1726_
*1711 _1727_
*1712 _1728_
*1713 _1729_
*1714 _1730_
*1715 _1731_
*1716 _1732_
*1717 _1733_
*1718 _1734_
*1719 _1735_
*1720 _1736_
*1721 _1737_
*1722 _1738_
*1723 _1739_
*1724 _1740_
*1725 _1741_
*1726 _1742_
*1727 _1743_
*1728 _1744_
*1729 _1745_
*1730 _1746_
*1731 _1747_
*1732 _1748_
*1733 _1749_
*1734 _1750_
*1735 _1751_
*1736 _1752_
*1737 _1753_
*1738 _1754_
*1739 _1755_
*1740 _1756_
*1741 _1757_
*1742 _1758_
*1743 _1759_
*1744 _1760_
*1745 _1761_
*1746 _1762_
*1747 _1763_
*1748 _1764_
*1749 _1765_
*1750 _1766_
*1751 _1767_
*1752 _1768_
*1753 _1769_
*1754 _1770_
*1755 _1771_
*1756 _1772_
*1757 _1773_
*1758 _1774_
*1759 _1775_
*1760 _1776_
*1761 _1777_
*1762 _1778_
*1763 _1779_
*1764 _1780_
*1765 _1781_
*1766 _1782_
*1767 _1783_
*1768 _1784_
*1769 _1785_
*1770 _1786_
*1771 _1787_
*1772 _1788_
*1773 _1789_
*1774 _1790_
*1775 _1791_
*1776 _1792_
*1777 _1793_
*1778 _1794_
*1779 _1795_
*1780 _1796_
*1781 _1797_
*1782 _1798_
*1783 _1799_
*1784 _1800_
*1785 _1801_
*1786 _1802_
*1787 _1803_
*1788 _1804_
*1789 _1805_
*1790 _1806_
*1791 _1807_
*1792 _1808_
*1793 _1809_
*1794 _1810_
*1795 _1811_
*1796 _1812_
*1797 _1813_
*1798 _1814_
*1799 _1815_
*1800 _1816_
*1801 _1817_
*1802 _1818_
*1803 _1819_
*1804 _1820_
*1805 _1821_
*1806 _1822_
*1807 _1823_
*1808 _1824_
*1809 _1825_
*1810 _1826_
*1811 _1827_
*1812 _1828_
*1813 _1829_
*1814 _1830_
*1815 _1831_
*1816 _1832_
*1817 _1833_
*1818 _1834_
*1819 _1835_
*1820 _1836_
*1821 _1837_
*1822 _1838_
*1823 _1839_
*1824 _1840_
*1825 _1841_
*1826 _1842_
*1827 _1843_
*1828 _1844_
*1829 _1845_
*1830 _1846_
*1831 _1847_
*1832 _1848_
*1833 _1849_
*1834 _1850_
*1835 _1851_
*1836 _1852_
*1837 _1853_
*1838 _1854_
*1839 _1855_
*1840 _1856_
*1841 _1857_
*1842 _1858_
*1843 _1859_
*1844 _1860_
*1845 _1861_
*1846 _1862_
*1847 _1863_
*1848 _1864_
*1849 _1865_
*1850 _1866_
*1851 _1867_
*1852 _1868_
*1853 _1869_
*1854 _1870_
*1855 _1871_
*1856 _1872_
*1857 _1873_
*1858 _1874_
*1859 _1875_
*1860 _1876_
*1861 _1877_
*1862 _1878_
*1863 _1879_
*1864 _1880_
*1865 _1881_
*1866 _1882_
*1867 _1883_
*1868 _1884_
*1869 _1885_
*1870 _1886_
*1871 _1887_
*1872 _1888_
*1873 _1889_
*1874 _1890_
*1875 _1891_
*1876 _1892_
*1877 _1893_
*1878 _1894_
*1879 _1895_
*1880 _1896_
*1881 _1897_
*1882 _1898_
*1883 _1899_
*1884 _1900_
*1885 _1901_
*1886 _1902_
*1887 _1903_
*1888 _1904_
*1889 _1905_
*1890 _1906_
*1891 _1907_
*1892 _1908_
*1893 _1909_
*1894 calc_ready
*1895 clknet_0_clk
*1896 clknet_3_0__leaf_clk
*1897 clknet_3_1__leaf_clk
*1898 clknet_3_2__leaf_clk
*1899 clknet_3_3__leaf_clk
*1900 clknet_3_4__leaf_clk
*1901 clknet_3_5__leaf_clk
*1902 clknet_3_6__leaf_clk
*1903 clknet_3_7__leaf_clk
*1904 counter\[0\]
*1905 counter\[10\]
*1906 counter\[11\]
*1907 counter\[12\]
*1908 counter\[13\]
*1909 counter\[14\]
*1910 counter\[15\]
*1911 counter\[1\]
*1912 counter\[2\]
*1913 counter\[3\]
*1914 counter\[4\]
*1915 counter\[5\]
*1916 counter\[6\]
*1917 counter\[7\]
*1918 counter\[8\]
*1919 counter\[9\]
*1920 delta\[0\]
*1921 delta\[10\]
*1922 delta\[11\]
*1923 delta\[12\]
*1924 delta\[13\]
*1925 delta\[14\]
*1926 delta\[15\]
*1927 delta\[1\]
*1928 delta\[2\]
*1929 delta\[3\]
*1930 delta\[4\]
*1931 delta\[5\]
*1932 delta\[6\]
*1933 delta\[7\]
*1934 delta\[8\]
*1935 delta\[9\]
*1936 net1
*1937 net10
*1938 net100
*1939 net101
*1940 net102
*1941 net103
*1942 net104
*1943 net105
*1944 net106
*1945 net107
*1946 net108
*1947 net109
*1948 net11
*1949 net110
*1950 net111
*1951 net112
*1952 net113
*1953 net114
*1954 net115
*1955 net116
*1956 net117
*1957 net118
*1958 net119
*1959 net12
*1960 net120
*1961 net121
*1962 net122
*1963 net123
*1964 net124
*1965 net125
*1966 net126
*1967 net127
*1968 net128
*1969 net129
*1970 net13
*1971 net130
*1972 net131
*1973 net132
*1974 net133
*1975 net134
*1976 net135
*1977 net136
*1978 net137
*1979 net138
*1980 net139
*1981 net14
*1982 net140
*1983 net141
*1984 net142
*1985 net143
*1986 net144
*1987 net145
*1988 net146
*1989 net147
*1990 net148
*1991 net149
*1992 net15
*1993 net150
*1994 net151
*1995 net152
*1996 net153
*1997 net154
*1998 net155
*1999 net156
*2000 net157
*2001 net158
*2002 net159
*2003 net16
*2004 net160
*2005 net161
*2006 net162
*2007 net163
*2008 net164
*2009 net165
*2010 net166
*2011 net167
*2012 net168
*2013 net169
*2014 net17
*2015 net170
*2016 net171
*2017 net172
*2018 net173
*2019 net174
*2020 net175
*2021 net176
*2022 net177
*2023 net178
*2024 net179
*2025 net18
*2026 net180
*2027 net181
*2028 net182
*2029 net183
*2030 net184
*2031 net185
*2032 net186
*2033 net187
*2034 net188
*2035 net189
*2036 net19
*2037 net190
*2038 net191
*2039 net192
*2040 net193
*2041 net194
*2042 net195
*2043 net196
*2044 net197
*2045 net198
*2046 net199
*2047 net2
*2048 net20
*2049 net200
*2050 net201
*2051 net202
*2052 net203
*2053 net204
*2054 net205
*2055 net206
*2056 net207
*2057 net208
*2058 net209
*2059 net21
*2060 net210
*2061 net211
*2062 net212
*2063 net213
*2064 net214
*2065 net215
*2066 net216
*2067 net217
*2068 net218
*2069 net219
*2070 net22
*2071 net220
*2072 net221
*2073 net222
*2074 net223
*2075 net224
*2076 net225
*2077 net226
*2078 net227
*2079 net228
*2080 net229
*2081 net23
*2082 net230
*2083 net231
*2084 net232
*2085 net233
*2086 net234
*2087 net235
*2088 net236
*2089 net237
*2090 net238
*2091 net239
*2092 net24
*2093 net240
*2094 net241
*2095 net242
*2096 net243
*2097 net244
*2098 net245
*2099 net246
*2100 net247
*2101 net248
*2102 net249
*2103 net25
*2104 net250
*2105 net251
*2106 net252
*2107 net253
*2108 net254
*2109 net255
*2110 net256
*2111 net257
*2112 net258
*2113 net259
*2114 net26
*2115 net260
*2116 net261
*2117 net262
*2118 net263
*2119 net264
*2120 net265
*2121 net266
*2122 net267
*2123 net268
*2124 net269
*2125 net27
*2126 net270
*2127 net271
*2128 net272
*2129 net273
*2130 net274
*2131 net275
*2132 net276
*2133 net277
*2134 net278
*2135 net279
*2136 net28
*2137 net280
*2138 net281
*2139 net282
*2140 net283
*2141 net284
*2142 net285
*2143 net286
*2144 net287
*2145 net288
*2146 net289
*2147 net29
*2148 net290
*2149 net291
*2150 net292
*2151 net293
*2152 net294
*2153 net295
*2154 net296
*2155 net297
*2156 net298
*2157 net3
*2158 net30
*2159 net31
*2160 net32
*2161 net33
*2162 net34
*2163 net35
*2164 net36
*2165 net37
*2166 net38
*2167 net39
*2168 net4
*2169 net40
*2170 net41
*2171 net42
*2172 net43
*2173 net44
*2174 net45
*2175 net46
*2176 net47
*2177 net48
*2178 net49
*2179 net5
*2180 net50
*2181 net51
*2182 net52
*2183 net53
*2184 net54
*2185 net55
*2186 net56
*2187 net57
*2188 net58
*2189 net59
*2190 net6
*2191 net60
*2192 net61
*2193 net62
*2194 net63
*2195 net64
*2196 net65
*2197 net66
*2198 net67
*2199 net68
*2200 net69
*2201 net7
*2202 net70
*2203 net71
*2204 net72
*2205 net73
*2206 net74
*2207 net75
*2208 net76
*2209 net77
*2210 net78
*2211 net79
*2212 net8
*2213 net80
*2214 net81
*2215 net82
*2216 net83
*2217 net84
*2218 net85
*2219 net86
*2220 net87
*2221 net88
*2222 net89
*2223 net9
*2224 net90
*2225 net91
*2226 net92
*2227 net93
*2228 net94
*2229 net95
*2230 net96
*2231 net97
*2232 net98
*2233 net99
*2234 rising
*2235 state\[0\]
*2236 state\[1\]
*2237 state\[2\]
*2238 state\[3\]
*2239 state\[4\]
*2240 tA\[0\]
*2241 tA\[10\]
*2242 tA\[11\]
*2243 tA\[12\]
*2244 tA\[13\]
*2245 tA\[14\]
*2246 tA\[15\]
*2247 tA\[1\]
*2248 tA\[2\]
*2249 tA\[3\]
*2250 tA\[4\]
*2251 tA\[5\]
*2252 tA\[6\]
*2253 tA\[7\]
*2254 tA\[8\]
*2255 tA\[9\]
*2256 tB\[0\]
*2257 tB\[10\]
*2258 tB\[11\]
*2259 tB\[12\]
*2260 tB\[13\]
*2261 tB\[14\]
*2262 tB\[15\]
*2263 tB\[1\]
*2264 tB\[2\]
*2265 tB\[3\]
*2266 tB\[4\]
*2267 tB\[5\]
*2268 tB\[6\]
*2269 tB\[7\]
*2270 tB\[8\]
*2271 tB\[9\]
*2272 tC\[0\]
*2273 tC\[10\]
*2274 tC\[11\]
*2275 tC\[12\]
*2276 tC\[13\]
*2277 tC\[14\]
*2278 tC\[15\]
*2279 tC\[1\]
*2280 tC\[2\]
*2281 tC\[3\]
*2282 tC\[4\]
*2283 tC\[5\]
*2284 tC\[6\]
*2285 tC\[7\]
*2286 tC\[8\]
*2287 tC\[9\]
*2288 ANTENNA_1
*2289 ANTENNA_2
*2290 ANTENNA_3
*2291 FILLER_0_0_106
*2292 FILLER_0_0_11
*2293 FILLER_0_0_113
*2294 FILLER_0_0_119
*2295 FILLER_0_0_127
*2296 FILLER_0_0_135
*2297 FILLER_0_0_139
*2298 FILLER_0_0_141
*2299 FILLER_0_0_149
*2300 FILLER_0_0_157
*2301 FILLER_0_0_165
*2302 FILLER_0_0_169
*2303 FILLER_0_0_177
*2304 FILLER_0_0_185
*2305 FILLER_0_0_19
*2306 FILLER_0_0_193
*2307 FILLER_0_0_197
*2308 FILLER_0_0_205
*2309 FILLER_0_0_213
*2310 FILLER_0_0_221
*2311 FILLER_0_0_225
*2312 FILLER_0_0_233
*2313 FILLER_0_0_241
*2314 FILLER_0_0_253
*2315 FILLER_0_0_27
*2316 FILLER_0_0_275
*2317 FILLER_0_0_279
*2318 FILLER_0_0_281
*2319 FILLER_0_0_289
*2320 FILLER_0_0_29
*2321 FILLER_0_0_297
*2322 FILLER_0_0_3
*2323 FILLER_0_0_305
*2324 FILLER_0_0_309