* NGSPICE file created from pid.ext - technology: sky130A

.subckt sky130_fd_sc_hd__a22o_1 A1 A2 B1 B2 VGND VNB VPB VPWR X
X0 VPWR A2 a_109_297# VPB sky130_fd_pr__pfet_01v8_hvt ad=0.155 pd=1.31 as=0.16 ps=1.32 w=1 l=0.15
X1 a_27_297# B1 a_109_47# VNB sky130_fd_pr__nfet_01v8 ad=0.169 pd=1.82 as=0.0747 ps=0.88 w=0.65 l=0.15
X2 VGND A2 a_373_47# VNB sky130_fd_pr__nfet_01v8 ad=0.101 pd=0.96 as=0.114 ps=1 w=0.65 l=0.15
X3 X a_27_297# VPWR VPB sky130_fd_pr__pfet_01v8_hvt ad=0.26 pd=2.52 as=0.155 ps=1.31 w=1 l=0.15
X4 a_27_297# B1 a_109_297# VPB sky130_fd_pr__pfet_01v8_hvt ad=0.253 pd=2.52 as=0.135 ps=1.27 w=1 l=0.15
X5 a_109_297# A1 VPWR VPB sky130_fd_pr__pfet_01v8_hvt ad=0.16 pd=1.32 as=0.253 ps=2.52 w=1 l=0.15
X6 a_373_47# A1 a_27_297# VNB sky130_fd_pr__nfet_01v8 ad=0.114 pd=1 as=0.169 ps=1.82 w=0.65 l=0.15
X7 X a_27_297# VGND VNB sky130_fd_pr__nfet_01v8 ad=0.169 pd=1.82 as=0.101 ps=0.96 w=0.65 l=0.15
X8 a_109_297# B2 a_27_297# VPB sky130_fd_pr__pfet_01v8_hvt ad=0.135 pd=1.27 as=0.26 ps=2.52 w=1 l=0.15
X9 a_109_47# B2 VGND VNB sky130_fd_pr__nfet_01v8 ad=0.0747 pd=0.88 as=0.169 ps=1.82 w=0.65 l=0.15
.ends

.subckt sky130_fd_sc_hd__xnor2_1 A B VGND VNB VPB VPWR Y
X0 a_377_297# A VPWR VPB sky130_fd_pr__pfet_01v8_hvt ad=0.105 pd=1.21 as=0.365 ps=1.73 w=1 l=0.15
X1 a_47_47# B VPWR VPB sky130_fd_pr__pfet_01v8_hvt ad=0.135 pd=1.27 as=0.3 ps=2.6 w=1 l=0.15
X2 a_129_47# B a_47_47# VNB sky130_fd_pr__nfet_01v8 ad=0.0683 pd=0.86 as=0.169 ps=1.82 w=0.65 l=0.15
X3 a_285_47# B VGND VNB sky130_fd_pr__nfet_01v8 ad=0.0878 pd=0.92 as=0.169 ps=1.82 w=0.65 l=0.15
X4 Y a_47_47# a_285_47# VNB sky130_fd_pr__nfet_01v8 ad=0.195 pd=1.9 as=0.0878 ps=0.92 w=0.65 l=0.15
X5 VGND A a_129_47# VNB sky130_fd_pr__nfet_01v8 ad=0.0878 pd=0.92 as=0.0683 ps=0.86 w=0.65 l=0.15
X6 VPWR A a_47_47# VPB sky130_fd_pr__pfet_01v8_hvt ad=0.365 pd=1.73 as=0.135 ps=1.27 w=1 l=0.15
X7 VPWR a_47_47# Y VPB sky130_fd_pr__pfet_01v8_hvt ad=0.36 pd=2.72 as=0.165 ps=1.33 w=1 l=0.15
X8 Y B a_377_297# VPB sky130_fd_pr__pfet_01v8_hvt ad=0.165 pd=1.33 as=0.105 ps=1.21 w=1 l=0.15
X9 a_285_47# A VGND VNB sky130_fd_pr__nfet_01v8 ad=0.169 pd=1.82 as=0.0878 ps=0.92 w=0.65 l=0.15
.ends

.subckt sky130_fd_sc_hd__decap_6 VGND VNB VPB VPWR
X0 VPWR VGND VPWR VPB sky130_fd_pr__pfet_01v8_hvt ad=0.226 pd=2.26 as=0 ps=0 w=0.87 l=1.97
X1 VGND VPWR VGND VNB sky130_fd_pr__nfet_01v8 ad=0.143 pd=1.62 as=0 ps=0 w=0.55 l=1.97
.ends

.subckt sky130_fd_sc_hd__decap_8 VGND VNB VPB VPWR
X0 VPWR VGND VPWR VPB sky130_fd_pr__pfet_01v8_hvt ad=0.226 pd=2.26 as=0 ps=0 w=0.87 l=2.89
X1 VGND VPWR VGND VNB sky130_fd_pr__nfet_01v8 ad=0.143 pd=1.62 as=0 ps=0 w=0.55 l=2.89
.ends

.subckt sky130_fd_sc_hd__decap_4 VGND VNB VPB VPWR
X0 VPWR VGND VPWR VPB sky130_fd_pr__pfet_01v8_hvt ad=0.226 pd=2.26 as=0 ps=0 w=0.87 l=1.05
X1 VGND VPWR VGND VNB sky130_fd_pr__nfet_01v8 ad=0.143 pd=1.62 as=0 ps=0 w=0.55 l=1.05
.ends

.subckt sky130_fd_sc_hd__decap_3 VGND VNB VPB VPWR
X0 VPWR VGND VPWR VPB sky130_fd_pr__pfet_01v8_hvt ad=0.226 pd=2.26 as=0 ps=0 w=0.87 l=0.59
X1 VGND VPWR VGND VNB sky130_fd_pr__nfet_01v8 ad=0.143 pd=1.62 as=0 ps=0 w=0.55 l=0.59
.ends

.subckt sky130_fd_sc_hd__a22oi_1 A1 A2 B1 B2 VGND VNB VPB VPWR Y
X0 Y B1 a_109_47# VNB sky130_fd_pr__nfet_01v8 ad=0.169 pd=1.82 as=0.0747 ps=0.88 w=0.65 l=0.15
X1 Y B1 a_109_297# VPB sky130_fd_pr__pfet_01v8_hvt ad=0.26 pd=2.52 as=0.135 ps=1.27 w=1 l=0.15
X2 VPWR A2 a_109_297# VPB sky130_fd_pr__pfet_01v8_hvt ad=0.3 pd=2.6 as=0.135 ps=1.27 w=1 l=0.15
X3 a_109_297# A1 VPWR VPB sky130_fd_pr__pfet_01v8_hvt ad=0.135 pd=1.27 as=0.26 ps=2.52 w=1 l=0.15
X4 a_381_47# A1 Y VNB sky130_fd_pr__nfet_01v8 ad=0.0683 pd=0.86 as=0.169 ps=1.82 w=0.65 l=0.15
X5 a_109_297# B2 Y VPB sky130_fd_pr__pfet_01v8_hvt ad=0.135 pd=1.27 as=0.26 ps=2.52 w=1 l=0.15
X6 a_109_47# B2 VGND VNB sky130_fd_pr__nfet_01v8 ad=0.0747 pd=0.88 as=0.169 ps=1.82 w=0.65 l=0.15
X7 VGND A2 a_381_47# VNB sky130_fd_pr__nfet_01v8 ad=0.234 pd=2.02 as=0.0683 ps=0.86 w=0.65 l=0.15
.ends

.subckt sky130_fd_sc_hd__a21o_1 A1 A2 B1 VGND VNB VPB VPWR X
X0 a_81_21# B1 VGND VNB sky130_fd_pr__nfet_01v8 ad=0.0894 pd=0.925 as=0.257 ps=1.44 w=0.65 l=0.15
X1 a_299_297# B1 a_81_21# VPB sky130_fd_pr__pfet_01v8_hvt ad=0.138 pd=1.27 as=0.26 ps=2.52 w=1 l=0.15
X2 VPWR a_81_21# X VPB sky130_fd_pr__pfet_01v8_hvt ad=0.26 pd=2.52 as=0.26 ps=2.52 w=1 l=0.15
X3 VPWR A1 a_299_297# VPB sky130_fd_pr__pfet_01v8_hvt ad=0.14 pd=1.28 as=0.138 ps=1.27 w=1 l=0.15
X4 VGND a_81_21# X VNB sky130_fd_pr__nfet_01v8 ad=0.257 pd=1.44 as=0.169 ps=1.82 w=0.65 l=0.15
X5 VGND A2 a_384_47# VNB sky130_fd_pr__nfet_01v8 ad=0.172 pd=1.83 as=0.091 ps=0.93 w=0.65 l=0.15
X6 a_299_297# A2 VPWR VPB sky130_fd_pr__pfet_01v8_hvt ad=0.265 pd=2.53 as=0.14 ps=1.28 w=1 l=0.15
X7 a_384_47# A1 a_81_21# VNB sky130_fd_pr__nfet_01v8 ad=0.091 pd=0.93 as=0.0894 ps=0.925 w=0.65 l=0.15
.ends

.subckt sky130_fd_sc_hd__nor2_1 A B VGND VNB VPB VPWR Y
X0 VPWR A a_109_297# VPB sky130_fd_pr__pfet_01v8_hvt ad=0.26 pd=2.52 as=0.105 ps=1.21 w=1 l=0.15
X1 VGND A Y VNB sky130_fd_pr__nfet_01v8 ad=0.169 pd=1.82 as=0.0878 ps=0.92 w=0.65 l=0.15
X2 a_109_297# B Y VPB sky130_fd_pr__pfet_01v8_hvt ad=0.105 pd=1.21 as=0.26 ps=2.52 w=1 l=0.15
X3 Y B VGND VNB sky130_fd_pr__nfet_01v8 ad=0.0878 pd=0.92 as=0.169 ps=1.82 w=0.65 l=0.15
.ends

.subckt sky130_fd_sc_hd__o211a_1 A1 A2 B1 C1 VGND VNB VPB VPWR X
X0 VGND A1 a_215_47# VNB sky130_fd_pr__nfet_01v8 ad=0.106 pd=0.975 as=0.169 ps=1.82 w=0.65 l=0.15
X1 a_510_47# B1 a_215_47# VNB sky130_fd_pr__nfet_01v8 ad=0.114 pd=1 as=0.143 ps=1.09 w=0.65 l=0.15
X2 a_79_21# C1 VPWR VPB sky130_fd_pr__pfet_01v8_hvt ad=0.3 pd=2.6 as=0.175 ps=1.35 w=1 l=0.15
X3 VPWR B1 a_79_21# VPB sky130_fd_pr__pfet_01v8_hvt ad=0.175 pd=1.35 as=0.22 ps=1.44 w=1 l=0.15
X4 a_79_21# A2 a_297_297# VPB sky130_fd_pr__pfet_01v8_hvt ad=0.22 pd=1.44 as=0.162 ps=1.33 w=1 l=0.15
X5 a_297_297# A1 VPWR VPB sky130_fd_pr__pfet_01v8_hvt ad=0.162 pd=1.33 as=0.26 ps=2.52 w=1 l=0.15
X6 a_79_21# C1 a_510_47# VNB sky130_fd_pr__nfet_01v8 ad=0.195 pd=1.9 as=0.114 ps=1 w=0.65 l=0.15
X7 VPWR a_79_21# X VPB sky130_fd_pr__pfet_01v8_hvt ad=0.26 pd=2.52 as=0.26 ps=2.52 w=1 l=0.15
X8 VGND a_79_21# X VNB sky130_fd_pr__nfet_01v8 ad=0.169 pd=1.82 as=0.169 ps=1.82 w=0.65 l=0.15
X9 a_215_47# A2 VGND VNB sky130_fd_pr__nfet_01v8 ad=0.143 pd=1.09 as=0.106 ps=0.975 w=0.65 l=0.15
.ends

.subckt sky130_fd_sc_hd__inv_2 A VGND VNB VPB VPWR Y
X0 Y A VPWR VPB sky130_fd_pr__pfet_01v8_hvt ad=0.135 pd=1.27 as=0.26 ps=2.52 w=1 l=0.15
X1 VGND A Y VNB sky130_fd_pr__nfet_01v8 ad=0.169 pd=1.82 as=0.0878 ps=0.92 w=0.65 l=0.15
X2 Y A VGND VNB sky130_fd_pr__nfet_01v8 ad=0.0878 pd=0.92 as=0.169 ps=1.82 w=0.65 l=0.15
X3 VPWR A Y VPB sky130_fd_pr__pfet_01v8_hvt ad=0.26 pd=2.52 as=0.135 ps=1.27 w=1 l=0.15
.ends

.subckt sky130_fd_sc_hd__o21ai_1 A1 A2 B1 VGND VNB VPB VPWR Y
X0 Y A2 a_109_297# VPB sky130_fd_pr__pfet_01v8_hvt ad=0.174 pd=1.39 as=0.105 ps=1.21 w=1 l=0.15
X1 VPWR B1 Y VPB sky130_fd_pr__pfet_01v8_hvt ad=0.182 pd=1.92 as=0.174 ps=1.39 w=0.7 l=0.15
X2 a_27_47# A2 VGND VNB sky130_fd_pr__nfet_01v8 ad=0.0878 pd=0.92 as=0.107 ps=0.98 w=0.65 l=0.15
X3 Y B1 a_27_47# VNB sky130_fd_pr__nfet_01v8 ad=0.169 pd=1.82 as=0.0878 ps=0.92 w=0.65 l=0.15
X4 a_109_297# A1 VPWR VPB sky130_fd_pr__pfet_01v8_hvt ad=0.105 pd=1.21 as=0.26 ps=2.52 w=1 l=0.15
X5 VGND A1 a_27_47# VNB sky130_fd_pr__nfet_01v8 ad=0.107 pd=0.98 as=0.169 ps=1.82 w=0.65 l=0.15
.ends

.subckt sky130_fd_sc_hd__nor2_2 A B VGND VNB VPB VPWR Y
X0 Y B a_27_297# VPB sky130_fd_pr__pfet_01v8_hvt ad=0.135 pd=1.27 as=0.135 ps=1.27 w=1 l=0.15
X1 Y B VGND VNB sky130_fd_pr__nfet_01v8 ad=0.0878 pd=0.92 as=0.0878 ps=0.92 w=0.65 l=0.15
X2 a_27_297# A VPWR VPB sky130_fd_pr__pfet_01v8_hvt ad=0.135 pd=1.27 as=0.135 ps=1.27 w=1 l=0.15
X3 VGND A Y VNB sky130_fd_pr__nfet_01v8 ad=0.0878 pd=0.92 as=0.0878 ps=0.92 w=0.65 l=0.15
X4 Y A VGND VNB sky130_fd_pr__nfet_01v8 ad=0.0878 pd=0.92 as=0.182 ps=1.86 w=0.65 l=0.15
X5 VGND B Y VNB sky130_fd_pr__nfet_01v8 ad=0.169 pd=1.82 as=0.0878 ps=0.92 w=0.65 l=0.15
X6 VPWR A a_27_297# VPB sky130_fd_pr__pfet_01v8_hvt ad=0.135 pd=1.27 as=0.28 ps=2.56 w=1 l=0.15
X7 a_27_297# B Y VPB sky130_fd_pr__pfet_01v8_hvt ad=0.26 pd=2.52 as=0.135 ps=1.27 w=1 l=0.15
.ends

.subckt sky130_fd_sc_hd__nand2_1 A B VGND VNB VPB VPWR Y
X0 VPWR A Y VPB sky130_fd_pr__pfet_01v8_hvt ad=0.26 pd=2.52 as=0.135 ps=1.27 w=1 l=0.15
X1 Y A a_113_47# VNB sky130_fd_pr__nfet_01v8 ad=0.169 pd=1.82 as=0.0878 ps=0.92 w=0.65 l=0.15
X2 a_113_47# B VGND VNB sky130_fd_pr__nfet_01v8 ad=0.0878 pd=0.92 as=0.169 ps=1.82 w=0.65 l=0.15
X3 Y B VPWR VPB sky130_fd_pr__pfet_01v8_hvt ad=0.135 pd=1.27 as=0.26 ps=2.52 w=1 l=0.15
.ends

.subckt sky130_fd_sc_hd__a21oi_1 A1 A2 B1 VGND VNB VPB VPWR Y
X0 a_199_47# A1 Y VNB sky130_fd_pr__nfet_01v8 ad=0.0959 pd=0.945 as=0.091 ps=0.93 w=0.65 l=0.15
X1 a_113_297# A2 VPWR VPB sky130_fd_pr__pfet_01v8_hvt ad=0.265 pd=2.53 as=0.147 ps=1.29 w=1 l=0.15
X2 Y B1 VGND VNB sky130_fd_pr__nfet_01v8 ad=0.091 pd=0.93 as=0.172 ps=1.83 w=0.65 l=0.15
X3 VPWR A1 a_113_297# VPB sky130_fd_pr__pfet_01v8_hvt ad=0.147 pd=1.29 as=0.14 ps=1.28 w=1 l=0.15
X4 a_113_297# B1 Y VPB sky130_fd_pr__pfet_01v8_hvt ad=0.14 pd=1.28 as=0.265 ps=2.53 w=1 l=0.15
X5 VGND A2 a_199_47# VNB sky130_fd_pr__nfet_01v8 ad=0.172 pd=1.83 as=0.0959 ps=0.945 w=0.65 l=0.15
.ends

.subckt sky130_fd_sc_hd__xnor2_4 A B VGND VNB VPB VPWR Y
X0 VGND A a_902_47# VNB sky130_fd_pr__nfet_01v8 ad=0.0878 pd=0.92 as=0.0878 ps=0.92 w=0.65 l=0.15
X1 Y a_38_297# VPWR VPB sky130_fd_pr__pfet_01v8_hvt ad=0.135 pd=1.27 as=0.135 ps=1.27 w=1 l=0.15
X2 a_38_297# B VPWR VPB sky130_fd_pr__pfet_01v8_hvt ad=0.135 pd=1.27 as=0.135 ps=1.27 w=1 l=0.15
X3 a_820_297# B Y VPB sky130_fd_pr__pfet_01v8_hvt ad=0.26 pd=2.52 as=0.135 ps=1.27 w=1 l=0.15
X4 VPWR a_38_297# Y VPB sky130_fd_pr__pfet_01v8_hvt ad=0.135 pd=1.27 as=0.28 ps=2.56 w=1 l=0.15
X5 VGND A a_902_47# VNB sky130_fd_pr__nfet_01v8 ad=0.0878 pd=0.92 as=0.0878 ps=0.92 w=0.65 l=0.15
X6 VGND B a_902_47# VNB sky130_fd_pr__nfet_01v8 ad=0.0878 pd=0.92 as=0.0878 ps=0.92 w=0.65 l=0.15
X7 VGND B a_902_47# VNB sky130_fd_pr__nfet_01v8 ad=0.169 pd=1.82 as=0.0878 ps=0.92 w=0.65 l=0.15
X8 Y B a_820_297# VPB sky130_fd_pr__pfet_01v8_hvt ad=0.135 pd=1.27 as=0.135 ps=1.27 w=1 l=0.15
X9 a_38_297# A VPWR VPB sky130_fd_pr__pfet_01v8_hvt ad=0.26 pd=2.52 as=0.135 ps=1.27 w=1 l=0.15
X10 a_38_297# B a_38_47# VNB sky130_fd_pr__nfet_01v8 ad=0.0878 pd=0.92 as=0.0878 ps=0.92 w=0.65 l=0.15
X11 VGND A a_38_47# VNB sky130_fd_pr__nfet_01v8 ad=0.0878 pd=0.92 as=0.0878 ps=0.92 w=0.65 l=0.15
X12 a_902_47# B VGND VNB sky130_fd_pr__nfet_01v8 ad=0.0878 pd=0.92 as=0.0878 ps=0.92 w=0.65 l=0.15
X13 a_820_297# B Y VPB sky130_fd_pr__pfet_01v8_hvt ad=0.135 pd=1.27 as=0.135 ps=1.27 w=1 l=0.15
X14 a_902_47# B VGND VNB sky130_fd_pr__nfet_01v8 ad=0.0878 pd=0.92 as=0.0878 ps=0.92 w=0.65 l=0.15
X15 VPWR A a_38_297# VPB sky130_fd_pr__pfet_01v8_hvt ad=0.135 pd=1.27 as=0.135 ps=1.27 w=1 l=0.15
X16 Y a_38_297# a_902_47# VNB sky130_fd_pr__nfet_01v8 ad=0.0878 pd=0.92 as=0.169 ps=1.82 w=0.65 l=0.15
X17 Y a_38_297# a_902_47# VNB sky130_fd_pr__nfet_01v8 ad=0.0878 pd=0.92 as=0.0878 ps=0.92 w=0.65 l=0.15
X18 a_38_47# B a_38_297# VNB sky130_fd_pr__nfet_01v8 ad=0.0878 pd=0.92 as=0.0878 ps=0.92 w=0.65 l=0.15
X19 a_38_47# B a_38_297# VNB sky130_fd_pr__nfet_01v8 ad=0.0878 pd=0.92 as=0.0878 ps=0.92 w=0.65 l=0.15
X20 a_38_297# B a_38_47# VNB sky130_fd_pr__nfet_01v8 ad=0.0878 pd=0.92 as=0.182 ps=1.86 w=0.65 l=0.15
X21 a_38_47# A VGND VNB sky130_fd_pr__nfet_01v8 ad=0.0878 pd=0.92 as=0.0878 ps=0.92 w=0.65 l=0.15
X22 VPWR B a_38_297# VPB sky130_fd_pr__pfet_01v8_hvt ad=0.135 pd=1.27 as=0.28 ps=2.56 w=1 l=0.15
X23 a_38_47# A VGND VNB sky130_fd_pr__nfet_01v8 ad=0.169 pd=1.82 as=0.0878 ps=0.92 w=0.65 l=0.15
X24 a_902_47# a_38_297# Y VNB sky130_fd_pr__nfet_01v8 ad=0.0878 pd=0.92 as=0.0878 ps=0.92 w=0.65 l=0.15
X25 a_902_47# a_38_297# Y VNB sky130_fd_pr__nfet_01v8 ad=0.182 pd=1.86 as=0.0878 ps=0.92 w=0.65 l=0.15
X26 Y B a_820_297# VPB sky130_fd_pr__pfet_01v8_hvt ad=0.135 pd=1.27 as=0.135 ps=1.27 w=1 l=0.15
X27 a_38_297# A VPWR VPB sky130_fd_pr__pfet_01v8_hvt ad=0.135 pd=1.27 as=0.135 ps=1.27 w=1 l=0.15
X28 a_820_297# A VPWR VPB sky130_fd_pr__pfet_01v8_hvt ad=0.135 pd=1.27 as=0.135 ps=1.27 w=1 l=0.15
X29 VPWR A a_38_297# VPB sky130_fd_pr__pfet_01v8_hvt ad=0.135 pd=1.27 as=0.135 ps=1.27 w=1 l=0.15
X30 VGND A a_38_47# VNB sky130_fd_pr__nfet_01v8 ad=0.0878 pd=0.92 as=0.0878 ps=0.92 w=0.65 l=0.15
X31 VPWR A a_820_297# VPB sky130_fd_pr__pfet_01v8_hvt ad=0.135 pd=1.27 as=0.135 ps=1.27 w=1 l=0.15
X32 a_902_47# A VGND VNB sky130_fd_pr__nfet_01v8 ad=0.0878 pd=0.92 as=0.0878 ps=0.92 w=0.65 l=0.15
X33 a_820_297# A VPWR VPB sky130_fd_pr__pfet_01v8_hvt ad=0.135 pd=1.27 as=0.135 ps=1.27 w=1 l=0.15
X34 Y a_38_297# VPWR VPB sky130_fd_pr__pfet_01v8_hvt ad=0.28 pd=2.56 as=0.135 ps=1.27 w=1 l=0.15
X35 a_902_47# A VGND VNB sky130_fd_pr__nfet_01v8 ad=0.0878 pd=0.92 as=0.169 ps=1.82 w=0.65 l=0.15
X36 a_38_297# B VPWR VPB sky130_fd_pr__pfet_01v8_hvt ad=0.135 pd=1.27 as=0.135 ps=1.27 w=1 l=0.15
X37 VPWR A a_820_297# VPB sky130_fd_pr__pfet_01v8_hvt ad=0.135 pd=1.27 as=0.26 ps=2.52 w=1 l=0.15
X38 VPWR a_38_297# Y VPB sky130_fd_pr__pfet_01v8_hvt ad=0.135 pd=1.27 as=0.135 ps=1.27 w=1 l=0.15
X39 VPWR B a_38_297# VPB sky130_fd_pr__pfet_01v8_hvt ad=0.135 pd=1.27 as=0.135 ps=1.27 w=1 l=0.15
.ends

.subckt sky130_fd_sc_hd__buf_2 A VGND VNB VPB VPWR X
X0 VPWR a_27_47# X VPB sky130_fd_pr__pfet_01v8_hvt ad=0.265 pd=2.53 as=0.135 ps=1.27 w=1 l=0.15
X1 X a_27_47# VPWR VPB sky130_fd_pr__pfet_01v8_hvt ad=0.135 pd=1.27 as=0.149 ps=1.33 w=1 l=0.15
X2 VPWR A a_27_47# VPB sky130_fd_pr__pfet_01v8_hvt ad=0.149 pd=1.33 as=0.166 ps=1.8 w=0.64 l=0.15
X3 X a_27_47# VGND VNB sky130_fd_pr__nfet_01v8 ad=0.0878 pd=0.92 as=0.097 ps=0.975 w=0.65 l=0.15
X4 VGND a_27_47# X VNB sky130_fd_pr__nfet_01v8 ad=0.172 pd=1.83 as=0.0878 ps=0.92 w=0.65 l=0.15
X5 VGND A a_27_47# VNB sky130_fd_pr__nfet_01v8 ad=0.097 pd=0.975 as=0.109 ps=1.36 w=0.42 l=0.15
.ends

.subckt sky130_fd_sc_hd__nor3_1 A B C VGND VNB VPB VPWR Y
X0 VPWR A a_193_297# VPB sky130_fd_pr__pfet_01v8_hvt ad=0.26 pd=2.52 as=0.135 ps=1.27 w=1 l=0.15
X1 a_193_297# B a_109_297# VPB sky130_fd_pr__pfet_01v8_hvt ad=0.135 pd=1.27 as=0.135 ps=1.27 w=1 l=0.15
X2 Y B VGND VNB sky130_fd_pr__nfet_01v8 ad=0.0878 pd=0.92 as=0.0878 ps=0.92 w=0.65 l=0.15
X3 VGND A Y VNB sky130_fd_pr__nfet_01v8 ad=0.169 pd=1.82 as=0.0878 ps=0.92 w=0.65 l=0.15
X4 a_109_297# C Y VPB sky130_fd_pr__pfet_01v8_hvt ad=0.135 pd=1.27 as=0.26 ps=2.52 w=1 l=0.15
X5 VGND C Y VNB sky130_fd_pr__nfet_01v8 ad=0.0878 pd=0.92 as=0.169 ps=1.82 w=0.65 l=0.15
.ends

.subckt sky130_fd_sc_hd__xor2_4 A B VGND VNB VPB VPWR X
X0 a_27_297# A VPWR VPB sky130_fd_pr__pfet_01v8_hvt ad=0.135 pd=1.27 as=0.135 ps=1.27 w=1 l=0.15
X1 a_806_47# B X VNB sky130_fd_pr__nfet_01v8 ad=0.0878 pd=0.92 as=0.0878 ps=0.92 w=0.65 l=0.15
X2 a_806_47# B X VNB sky130_fd_pr__nfet_01v8 ad=0.0878 pd=0.92 as=0.0878 ps=0.92 w=0.65 l=0.15
X3 a_112_47# A VGND VNB sky130_fd_pr__nfet_01v8 ad=0.0878 pd=0.92 as=0.0878 ps=0.92 w=0.65 l=0.15
X4 a_27_297# B a_112_47# VPB sky130_fd_pr__pfet_01v8_hvt ad=0.26 pd=2.52 as=0.135 ps=1.27 w=1 l=0.15
X5 a_806_297# a_112_47# X VPB sky130_fd_pr__pfet_01v8_hvt ad=0.135 pd=1.27 as=0.135 ps=1.27 w=1 l=0.15
X6 VGND a_112_47# X VNB sky130_fd_pr__nfet_01v8 ad=0.182 pd=1.86 as=0.0878 ps=0.92 w=0.65 l=0.15
X7 X B a_806_47# VNB sky130_fd_pr__nfet_01v8 ad=0.0878 pd=0.92 as=0.0878 ps=0.92 w=0.65 l=0.15
X8 X a_112_47# a_806_297# VPB sky130_fd_pr__pfet_01v8_hvt ad=0.135 pd=1.27 as=0.135 ps=1.27 w=1 l=0.15
X9 a_112_47# B a_27_297# VPB sky130_fd_pr__pfet_01v8_hvt ad=0.135 pd=1.27 as=0.135 ps=1.27 w=1 l=0.15
X10 a_806_297# B VPWR VPB sky130_fd_pr__pfet_01v8_hvt ad=0.135 pd=1.27 as=0.135 ps=1.27 w=1 l=0.15
X11 VGND A a_806_47# VNB sky130_fd_pr__nfet_01v8 ad=0.0878 pd=0.92 as=0.0878 ps=0.92 w=0.65 l=0.15
X12 X B a_806_47# VNB sky130_fd_pr__nfet_01v8 ad=0.0878 pd=0.92 as=0.169 ps=1.82 w=0.65 l=0.15
X13 VGND A a_806_47# VNB sky130_fd_pr__nfet_01v8 ad=0.0878 pd=0.92 as=0.0878 ps=0.92 w=0.65 l=0.15
X14 a_806_297# a_112_47# X VPB sky130_fd_pr__pfet_01v8_hvt ad=0.135 pd=1.27 as=0.272 ps=2.56 w=1 l=0.15
X15 VGND A a_112_47# VNB sky130_fd_pr__nfet_01v8 ad=0.0878 pd=0.92 as=0.0878 ps=0.92 w=0.65 l=0.15
X16 a_112_47# A VGND VNB sky130_fd_pr__nfet_01v8 ad=0.0878 pd=0.92 as=0.179 ps=1.85 w=0.65 l=0.15
X17 VGND A a_112_47# VNB sky130_fd_pr__nfet_01v8 ad=0.0878 pd=0.92 as=0.0878 ps=0.92 w=0.65 l=0.15
X18 VPWR A a_27_297# VPB sky130_fd_pr__pfet_01v8_hvt ad=0.135 pd=1.27 as=0.275 ps=2.55 w=1 l=0.15
X19 a_806_297# B VPWR VPB sky130_fd_pr__pfet_01v8_hvt ad=0.135 pd=1.27 as=0.135 ps=1.27 w=1 l=0.15
X20 VPWR B a_806_297# VPB sky130_fd_pr__pfet_01v8_hvt ad=0.135 pd=1.27 as=0.135 ps=1.27 w=1 l=0.15
X21 VGND B a_112_47# VNB sky130_fd_pr__nfet_01v8 ad=0.0878 pd=0.92 as=0.0878 ps=0.92 w=0.65 l=0.15
X22 VGND B a_112_47# VNB sky130_fd_pr__nfet_01v8 ad=0.169 pd=1.82 as=0.0878 ps=0.92 w=0.65 l=0.15
X23 VPWR B a_806_297# VPB sky130_fd_pr__pfet_01v8_hvt ad=0.135 pd=1.27 as=0.26 ps=2.52 w=1 l=0.15
X24 a_806_47# A VGND VNB sky130_fd_pr__nfet_01v8 ad=0.0878 pd=0.92 as=0.0878 ps=0.92 w=0.65 l=0.15
X25 a_806_47# A VGND VNB sky130_fd_pr__nfet_01v8 ad=0.169 pd=1.82 as=0.0878 ps=0.92 w=0.65 l=0.15
X26 a_27_297# B a_112_47# VPB sky130_fd_pr__pfet_01v8_hvt ad=0.135 pd=1.27 as=0.135 ps=1.27 w=1 l=0.15
X27 a_112_47# B VGND VNB sky130_fd_pr__nfet_01v8 ad=0.0878 pd=0.92 as=0.0878 ps=0.92 w=0.65 l=0.15
X28 VGND a_112_47# X VNB sky130_fd_pr__nfet_01v8 ad=0.0878 pd=0.92 as=0.0878 ps=0.92 w=0.65 l=0.15
X29 a_806_297# A VPWR VPB sky130_fd_pr__pfet_01v8_hvt ad=0.257 pd=2.52 as=0.135 ps=1.27 w=1 l=0.15
X30 a_112_47# B VGND VNB sky130_fd_pr__nfet_01v8 ad=0.0878 pd=0.92 as=0.0878 ps=0.92 w=0.65 l=0.15
X31 a_112_47# B a_27_297# VPB sky130_fd_pr__pfet_01v8_hvt ad=0.135 pd=1.27 as=0.135 ps=1.27 w=1 l=0.15
X32 VPWR A a_806_297# VPB sky130_fd_pr__pfet_01v8_hvt ad=0.135 pd=1.27 as=0.135 ps=1.27 w=1 l=0.15
X33 a_27_297# A VPWR VPB sky130_fd_pr__pfet_01v8_hvt ad=0.135 pd=1.27 as=0.135 ps=1.27 w=1 l=0.15
X34 X a_112_47# a_806_297# VPB sky130_fd_pr__pfet_01v8_hvt ad=0.28 pd=2.56 as=0.135 ps=1.27 w=1 l=0.15
X35 VPWR A a_27_297# VPB sky130_fd_pr__pfet_01v8_hvt ad=0.135 pd=1.27 as=0.135 ps=1.27 w=1 l=0.15
X36 a_806_297# A VPWR VPB sky130_fd_pr__pfet_01v8_hvt ad=0.135 pd=1.27 as=0.135 ps=1.27 w=1 l=0.15
X37 X a_112_47# VGND VNB sky130_fd_pr__nfet_01v8 ad=0.0878 pd=0.92 as=0.169 ps=1.82 w=0.65 l=0.15
X38 X a_112_47# VGND VNB sky130_fd_pr__nfet_01v8 ad=0.0878 pd=0.92 as=0.0878 ps=0.92 w=0.65 l=0.15
X39 VPWR A a_806_297# VPB sky130_fd_pr__pfet_01v8_hvt ad=0.135 pd=1.27 as=0.135 ps=1.27 w=1 l=0.15
.ends

.subckt sky130_fd_sc_hd__dlygate4sd1_1 A VGND VNB VPB VPWR X
X0 X a_299_93# VGND VNB sky130_fd_pr__nfet_01v8 ad=0.169 pd=1.82 as=0.1 ps=0.985 w=0.65 l=0.15
X1 VPWR a_193_47# a_299_93# VPB sky130_fd_pr__pfet_01v8_hvt ad=0.141 pd=1.33 as=0.109 ps=1.36 w=0.42 l=0.15
X2 VPWR A a_27_47# VPB sky130_fd_pr__pfet_01v8_hvt ad=0.0567 pd=0.69 as=0.109 ps=1.36 w=0.42 l=0.15
X3 a_193_47# a_27_47# VGND VNB sky130_fd_pr__nfet_01v8 ad=0.109 pd=1.36 as=0.0567 ps=0.69 w=0.42 l=0.15
X4 a_193_47# a_27_47# VPWR VPB sky130_fd_pr__pfet_01v8_hvt ad=0.109 pd=1.36 as=0.0567 ps=0.69 w=0.42 l=0.15
X5 VGND a_193_47# a_299_93# VNB sky130_fd_pr__nfet_01v8 ad=0.1 pd=0.985 as=0.109 ps=1.36 w=0.42 l=0.15
X6 X a_299_93# VPWR VPB sky130_fd_pr__pfet_01v8_hvt ad=0.26 pd=2.52 as=0.141 ps=1.33 w=1 l=0.15
X7 VGND A a_27_47# VNB sky130_fd_pr__nfet_01v8 ad=0.0567 pd=0.69 as=0.109 ps=1.36 w=0.42 l=0.15
.ends

.subckt sky130_fd_sc_hd__and2_1 A B VGND VNB VPB VPWR X
X0 VPWR B a_59_75# VPB sky130_fd_pr__pfet_01v8_hvt ad=0.167 pd=1.39 as=0.0567 ps=0.69 w=0.42 l=0.15
X1 X a_59_75# VPWR VPB sky130_fd_pr__pfet_01v8_hvt ad=0.475 pd=2.95 as=0.167 ps=1.39 w=1 l=0.15
X2 VGND B a_145_75# VNB sky130_fd_pr__nfet_01v8 ad=0.112 pd=1.04 as=0.0567 ps=0.69 w=0.42 l=0.15
X3 a_59_75# A VPWR VPB sky130_fd_pr__pfet_01v8_hvt ad=0.0567 pd=0.69 as=0.118 ps=1.4 w=0.42 l=0.15
X4 X a_59_75# VGND VNB sky130_fd_pr__nfet_01v8 ad=0.182 pd=1.86 as=0.112 ps=1.04 w=0.65 l=0.15
X5 a_145_75# A a_59_75# VNB sky130_fd_pr__nfet_01v8 ad=0.0567 pd=0.69 as=0.118 ps=1.4 w=0.42 l=0.15
.ends

.subckt sky130_fd_sc_hd__or2b_1 A B_N VGND VNB VPB VPWR X
X0 a_219_297# a_27_53# VGND VNB sky130_fd_pr__nfet_01v8 ad=0.0567 pd=0.69 as=0.157 ps=1.17 w=0.42 l=0.15
X1 VGND B_N a_27_53# VNB sky130_fd_pr__nfet_01v8 ad=0.157 pd=1.17 as=0.109 ps=1.36 w=0.42 l=0.15
X2 VPWR A a_301_297# VPB sky130_fd_pr__pfet_01v8_hvt ad=0.148 pd=1.34 as=0.0441 ps=0.63 w=0.42 l=0.15
X3 X a_219_297# VGND VNB sky130_fd_pr__nfet_01v8 ad=0.176 pd=1.84 as=0.102 ps=0.99 w=0.65 l=0.15
X4 a_301_297# a_27_53# a_219_297# VPB sky130_fd_pr__pfet_01v8_hvt ad=0.0441 pd=0.63 as=0.109 ps=1.36 w=0.42 l=0.15
X5 X a_219_297# VPWR VPB sky130_fd_pr__pfet_01v8_hvt ad=0.27 pd=2.54 as=0.148 ps=1.34 w=1 l=0.15
X6 a_27_53# B_N VPWR VPB sky130_fd_pr__pfet_01v8_hvt ad=0.118 pd=1.4 as=0.109 ps=1.36 w=0.42 l=0.15
X7 VGND A a_219_297# VNB sky130_fd_pr__nfet_01v8 ad=0.102 pd=0.99 as=0.0567 ps=0.69 w=0.42 l=0.15
.ends

.subckt sky130_fd_sc_hd__xor2_1 A B VGND VNB VPB VPWR X
X0 X a_35_297# a_285_297# VPB sky130_fd_pr__pfet_01v8_hvt ad=0.3 pd=2.6 as=0.26 ps=2.52 w=1 l=0.15
X1 X B a_285_47# VNB sky130_fd_pr__nfet_01v8 ad=0.25 pd=1.42 as=0.0878 ps=0.92 w=0.65 l=0.15
X2 a_35_297# B VGND VNB sky130_fd_pr__nfet_01v8 ad=0.0878 pd=0.92 as=0.169 ps=1.82 w=0.65 l=0.15
X3 a_117_297# B a_35_297# VPB sky130_fd_pr__pfet_01v8_hvt ad=0.135 pd=1.27 as=0.26 ps=2.52 w=1 l=0.15
X4 VPWR B a_285_297# VPB sky130_fd_pr__pfet_01v8_hvt ad=0.26 pd=2.52 as=0.135 ps=1.27 w=1 l=0.15
X5 VGND A a_35_297# VNB sky130_fd_pr__nfet_01v8 ad=0.0878 pd=0.92 as=0.0878 ps=0.92 w=0.65 l=0.15
X6 VGND a_35_297# X VNB sky130_fd_pr__nfet_01v8 ad=0.208 pd=1.94 as=0.25 ps=1.42 w=0.65 l=0.15
X7 a_285_297# A VPWR VPB sky130_fd_pr__pfet_01v8_hvt ad=0.135 pd=1.27 as=0.135 ps=1.27 w=1 l=0.15
X8 VPWR A a_117_297# VPB sky130_fd_pr__pfet_01v8_hvt ad=0.135 pd=1.27 as=0.135 ps=1.27 w=1 l=0.15
X9 a_285_47# A VGND VNB sky130_fd_pr__nfet_01v8 ad=0.0878 pd=0.92 as=0.0878 ps=0.92 w=0.65 l=0.15
.ends

.subckt sky130_fd_sc_hd__a2bb2o_1 A1_N A2_N B1 B2 VGND VNB VPB VPWR X
X0 a_226_47# A2_N a_226_297# VPB sky130_fd_pr__pfet_01v8_hvt ad=0.111 pd=1.37 as=0.0441 ps=0.63 w=0.42 l=0.15
X1 a_489_413# B1 VPWR VPB sky130_fd_pr__pfet_01v8_hvt ad=0.109 pd=1.36 as=0.0567 ps=0.69 w=0.42 l=0.15
X2 a_226_297# A1_N VPWR VPB sky130_fd_pr__pfet_01v8_hvt ad=0.0441 pd=0.63 as=0.167 ps=1.43 w=0.42 l=0.15
X3 VPWR B2 a_489_413# VPB sky130_fd_pr__pfet_01v8_hvt ad=0.0567 pd=0.69 as=0.0567 ps=0.69 w=0.42 l=0.15
X4 a_489_413# a_226_47# a_76_199# VPB sky130_fd_pr__pfet_01v8_hvt ad=0.0567 pd=0.69 as=0.109 ps=1.36 w=0.42 l=0.15
X5 a_76_199# a_226_47# VGND VNB sky130_fd_pr__nfet_01v8 ad=0.0567 pd=0.69 as=0.139 ps=1.08 w=0.42 l=0.15
X6 VGND B1 a_556_47# VNB sky130_fd_pr__nfet_01v8 ad=0.109 pd=1.36 as=0.0567 ps=0.69 w=0.42 l=0.15
X7 a_556_47# B2 a_76_199# VNB sky130_fd_pr__nfet_01v8 ad=0.0567 pd=0.69 as=0.0567 ps=0.69 w=0.42 l=0.15
X8 VGND A2_N a_226_47# VNB sky130_fd_pr__nfet_01v8 ad=0.139 pd=1.08 as=0.0567 ps=0.69 w=0.42 l=0.15
X9 a_226_47# A1_N VGND VNB sky130_fd_pr__nfet_01v8 ad=0.0567 pd=0.69 as=0.12 ps=1.09 w=0.42 l=0.15
X10 VPWR a_76_199# X VPB sky130_fd_pr__pfet_01v8_hvt ad=0.167 pd=1.43 as=0.26 ps=2.52 w=1 l=0.15
X11 VGND a_76_199# X VNB sky130_fd_pr__nfet_01v8 ad=0.12 pd=1.09 as=0.169 ps=1.82 w=0.65 l=0.15
.ends

.subckt sky130_fd_sc_hd__and2b_1 A_N B VGND VNB VPB VPWR X
X0 VPWR B a_207_413# VPB sky130_fd_pr__pfet_01v8_hvt ad=0.228 pd=1.74 as=0.0609 ps=0.71 w=0.42 l=0.15
X1 X a_207_413# VPWR VPB sky130_fd_pr__pfet_01v8_hvt ad=0.26 pd=2.52 as=0.228 ps=1.74 w=1 l=0.15
X2 a_297_47# a_27_413# a_207_413# VNB sky130_fd_pr__nfet_01v8 ad=0.0504 pd=0.66 as=0.109 ps=1.36 w=0.42 l=0.15
X3 X a_207_413# VGND VNB sky130_fd_pr__nfet_01v8 ad=0.169 pd=1.82 as=0.101 ps=0.99 w=0.65 l=0.15
X4 a_207_413# a_27_413# VPWR VPB sky130_fd_pr__pfet_01v8_hvt ad=0.0609 pd=0.71 as=0.0714 ps=0.76 w=0.42 l=0.15
X5 VPWR A_N a_27_413# VPB sky130_fd_pr__pfet_01v8_hvt ad=0.0714 pd=0.76 as=0.109 ps=1.36 w=0.42 l=0.15
X6 VGND B a_297_47# VNB sky130_fd_pr__nfet_01v8 ad=0.101 pd=0.99 as=0.0504 ps=0.66 w=0.42 l=0.15
X7 a_27_413# A_N VGND VNB sky130_fd_pr__nfet_01v8 ad=0.109 pd=1.36 as=0.109 ps=1.36 w=0.42 l=0.15
.ends

.subckt sky130_fd_sc_hd__and3_1 A B C VGND VNB VPB VPWR X
X0 VPWR A a_27_47# VPB sky130_fd_pr__pfet_01v8_hvt ad=0.0567 pd=0.69 as=0.109 ps=1.36 w=0.42 l=0.15
X1 VPWR C a_27_47# VPB sky130_fd_pr__pfet_01v8_hvt ad=0.142 pd=1.34 as=0.0662 ps=0.735 w=0.42 l=0.15
X2 a_181_47# B a_109_47# VNB sky130_fd_pr__nfet_01v8 ad=0.0441 pd=0.63 as=0.0441 ps=0.63 w=0.42 l=0.15
X3 VGND C a_181_47# VNB sky130_fd_pr__nfet_01v8 ad=0.132 pd=1.14 as=0.0441 ps=0.63 w=0.42 l=0.15
X4 a_27_47# B VPWR VPB sky130_fd_pr__pfet_01v8_hvt ad=0.0662 pd=0.735 as=0.0567 ps=0.69 w=0.42 l=0.15
X5 X a_27_47# VPWR VPB sky130_fd_pr__pfet_01v8_hvt ad=0.26 pd=2.52 as=0.142 ps=1.34 w=1 l=0.15
X6 X a_27_47# VGND VNB sky130_fd_pr__nfet_01v8 ad=0.169 pd=1.82 as=0.132 ps=1.14 w=0.65 l=0.15
X7 a_109_47# A a_27_47# VNB sky130_fd_pr__nfet_01v8 ad=0.0441 pd=0.63 as=0.109 ps=1.36 w=0.42 l=0.15
.ends

.subckt sky130_fd_sc_hd__nand3_1 A B C VGND VNB VPB VPWR Y
X0 VPWR B Y VPB sky130_fd_pr__pfet_01v8_hvt ad=0.165 pd=1.33 as=0.135 ps=1.27 w=1 l=0.15
X1 Y A VPWR VPB sky130_fd_pr__pfet_01v8_hvt ad=0.26 pd=2.52 as=0.165 ps=1.33 w=1 l=0.15
X2 a_193_47# B a_109_47# VNB sky130_fd_pr__nfet_01v8 ad=0.107 pd=0.98 as=0.0878 ps=0.92 w=0.65 l=0.15
X3 Y A a_193_47# VNB sky130_fd_pr__nfet_01v8 ad=0.169 pd=1.82 as=0.107 ps=0.98 w=0.65 l=0.15
X4 Y C VPWR VPB sky130_fd_pr__pfet_01v8_hvt ad=0.135 pd=1.27 as=0.26 ps=2.52 w=1 l=0.15
X5 a_109_47# C VGND VNB sky130_fd_pr__nfet_01v8 ad=0.0878 pd=0.92 as=0.169 ps=1.82 w=0.65 l=0.15
.ends

.subckt sky130_fd_sc_hd__xnor2_2 A B VGND VNB VPB VPWR Y
X0 a_27_297# B VPWR VPB sky130_fd_pr__pfet_01v8_hvt ad=0.135 pd=1.27 as=0.135 ps=1.27 w=1 l=0.15
X1 a_560_47# A VGND VNB sky130_fd_pr__nfet_01v8 ad=0.0878 pd=0.92 as=0.182 ps=1.86 w=0.65 l=0.15
X2 VGND B a_560_47# VNB sky130_fd_pr__nfet_01v8 ad=0.169 pd=1.82 as=0.0991 ps=0.955 w=0.65 l=0.15
X3 Y B a_474_297# VPB sky130_fd_pr__pfet_01v8_hvt ad=0.153 pd=1.3 as=0.135 ps=1.27 w=1 l=0.15
X4 VGND A a_27_47# VNB sky130_fd_pr__nfet_01v8 ad=0.0878 pd=0.92 as=0.0878 ps=0.92 w=0.65 l=0.15
X5 Y a_27_297# a_560_47# VNB sky130_fd_pr__nfet_01v8 ad=0.169 pd=1.82 as=0.0878 ps=0.92 w=0.65 l=0.15
X6 a_474_297# B Y VPB sky130_fd_pr__pfet_01v8_hvt ad=0.26 pd=2.52 as=0.153 ps=1.3 w=1 l=0.15
X7 VGND A a_560_47# VNB sky130_fd_pr__nfet_01v8 ad=0.0878 pd=0.92 as=0.0878 ps=0.92 w=0.65 l=0.15
X8 a_27_47# B a_27_297# VNB sky130_fd_pr__nfet_01v8 ad=0.0878 pd=0.92 as=0.0878 ps=0.92 w=0.65 l=0.15
X9 a_27_297# B a_27_47# VNB sky130_fd_pr__nfet_01v8 ad=0.0878 pd=0.92 as=0.179 ps=1.85 w=0.65 l=0.15
X10 a_27_47# A VGND VNB sky130_fd_pr__nfet_01v8 ad=0.182 pd=1.86 as=0.0878 ps=0.92 w=0.65 l=0.15
X11 VPWR B a_27_297# VPB sky130_fd_pr__pfet_01v8_hvt ad=0.135 pd=1.27 as=0.275 ps=2.55 w=1 l=0.15
X12 a_474_297# A VPWR VPB sky130_fd_pr__pfet_01v8_hvt ad=0.135 pd=1.27 as=0.135 ps=1.27 w=1 l=0.15
X13 a_560_47# a_27_297# Y VNB sky130_fd_pr__nfet_01v8 ad=0.0878 pd=0.92 as=0.169 ps=1.82 w=0.65 l=0.15
X14 VPWR A a_474_297# VPB sky130_fd_pr__pfet_01v8_hvt ad=0.135 pd=1.27 as=0.28 ps=2.56 w=1 l=0.15
X15 Y a_27_297# VPWR VPB sky130_fd_pr__pfet_01v8_hvt ad=0.135 pd=1.27 as=0.26 ps=2.52 w=1 l=0.15
X16 VPWR a_27_297# Y VPB sky130_fd_pr__pfet_01v8_hvt ad=0.28 pd=2.56 as=0.135 ps=1.27 w=1 l=0.15
X17 a_560_47# B VGND VNB sky130_fd_pr__nfet_01v8 ad=0.0991 pd=0.955 as=0.0878 ps=0.92 w=0.65 l=0.15
X18 a_27_297# A VPWR VPB sky130_fd_pr__pfet_01v8_hvt ad=0.28 pd=2.56 as=0.135 ps=1.27 w=1 l=0.15
X19 VPWR A a_27_297# VPB sky130_fd_pr__pfet_01v8_hvt ad=0.135 pd=1.27 as=0.135 ps=1.27 w=1 l=0.15
.ends

.subckt sky130_fd_sc_hd__mux2_1 A0 A1 S VGND VNB VPB VPWR X
X0 VPWR a_505_21# a_535_374# VPB sky130_fd_pr__pfet_01v8_hvt ad=0.0693 pd=0.75 as=0.0441 ps=0.63 w=0.42 l=0.15
X1 a_505_21# S VPWR VPB sky130_fd_pr__pfet_01v8_hvt ad=0.118 pd=1.4 as=0.0693 ps=0.75 w=0.42 l=0.15
X2 a_218_374# S VPWR VPB sky130_fd_pr__pfet_01v8_hvt ad=0.0767 pd=0.785 as=0.158 ps=1.39 w=0.42 l=0.15
X3 VGND a_505_21# a_439_47# VNB sky130_fd_pr__nfet_01v8 ad=0.145 pd=1.11 as=0.0693 ps=0.75 w=0.42 l=0.15
X4 a_76_199# A0 a_218_374# VPB sky130_fd_pr__pfet_01v8_hvt ad=0.193 pd=1.34 as=0.0767 ps=0.785 w=0.42 l=0.15
X5 a_505_21# S VGND VNB sky130_fd_pr__nfet_01v8 ad=0.109 pd=1.36 as=0.145 ps=1.11 w=0.42 l=0.15
X6 a_439_47# A0 a_76_199# VNB sky130_fd_pr__nfet_01v8 ad=0.0693 pd=0.75 as=0.0997 ps=0.895 w=0.42 l=0.15
X7 a_535_374# A1 a_76_199# VPB sky130_fd_pr__pfet_01v8_hvt ad=0.0441 pd=0.63 as=0.193 ps=1.34 w=0.42 l=0.15
X8 a_76_199# A1 a_218_47# VNB sky130_fd_pr__nfet_01v8 ad=0.0997 pd=0.895 as=0.0693 ps=0.75 w=0.42 l=0.15
X9 a_218_47# S VGND VNB sky130_fd_pr__nfet_01v8 ad=0.0693 pd=0.75 as=0.113 ps=1.04 w=0.42 l=0.15
X10 VPWR a_76_199# X VPB sky130_fd_pr__pfet_01v8_hvt ad=0.158 pd=1.39 as=0.26 ps=2.52 w=1 l=0.15
X11 VGND a_76_199# X VNB sky130_fd_pr__nfet_01v8 ad=0.113 pd=1.04 as=0.169 ps=1.82 w=0.65 l=0.15
.ends

.subckt sky130_fd_sc_hd__o32a_1 A1 A2 A3 B1 B2 VGND VNB VPB VPWR X
X0 a_77_199# B2 a_227_47# VNB sky130_fd_pr__nfet_01v8 ad=0.133 pd=1.06 as=0.127 ps=1.04 w=0.65 l=0.15
X1 a_323_297# A2 a_227_297# VPB sky130_fd_pr__pfet_01v8_hvt ad=0.195 pd=1.39 as=0.165 ps=1.33 w=1 l=0.15
X2 a_227_297# A1 VPWR VPB sky130_fd_pr__pfet_01v8_hvt ad=0.165 pd=1.33 as=0.135 ps=1.27 w=1 l=0.15
X3 a_227_47# B1 a_77_199# VNB sky130_fd_pr__nfet_01v8 ad=0.189 pd=1.88 as=0.133 ps=1.06 w=0.65 l=0.15
X4 VGND a_77_199# X VNB sky130_fd_pr__nfet_01v8 ad=0.0878 pd=0.92 as=0.169 ps=1.82 w=0.65 l=0.15
X5 VPWR B1 a_539_297# VPB sky130_fd_pr__pfet_01v8_hvt ad=0.29 pd=2.58 as=0.205 ps=1.41 w=1 l=0.15
X6 a_227_47# A3 VGND VNB sky130_fd_pr__nfet_01v8 ad=0.127 pd=1.04 as=0.127 ps=1.04 w=0.65 l=0.15
X7 VPWR a_77_199# X VPB sky130_fd_pr__pfet_01v8_hvt ad=0.135 pd=1.27 as=0.335 ps=2.67 w=1 l=0.15
X8 a_77_199# A3 a_323_297# VPB sky130_fd_pr__pfet_01v8_hvt ad=0.195 pd=1.39 as=0.195 ps=1.39 w=1 l=0.15