*SPEF "ieee 1481-1999"
*DESIGN "clarke"
*DATE "11:11:11 Fri 11 11, 1111"
*VENDOR "OpenRCX"
*PROGRAM "Parallel Extraction"
*VERSION "1.0"
*DESIGN_FLOW "NAME_SCOPE LOCAL" "PIN_CAP NONE"
*DIVIDER /
*DELIMITER :
*BUS_DELIMITER []
*T_UNIT 1 NS
*C_UNIT 1 PF
*R_UNIT 1 OHM
*L_UNIT 1 HENRY

*NAME_MAP
*3 a[0]
*4 a[10]
*5 a[11]
*6 a[12]
*7 a[13]
*8 a[14]
*9 a[15]
*10 a[16]
*11 a[17]
*12 a[18]
*13 a[1]
*14 a[2]
*15 a[3]
*16 a[4]
*17 a[5]
*18 a[6]
*19 a[7]
*20 a[8]
*21 a[9]
*22 alpha[0]
*23 alpha[10]
*24 alpha[11]
*25 alpha[12]
*26 alpha[13]
*27 alpha[14]
*28 alpha[15]
*29 alpha[16]
*30 alpha[17]
*31 alpha[18]
*32 alpha[1]
*33 alpha[2]
*34 alpha[3]
*35 alpha[4]
*36 alpha[5]
*37 alpha[6]
*38 alpha[7]
*39 alpha[8]
*40 alpha[9]
*41 b[0]
*42 b[10]
*43 b[11]
*44 b[12]
*45 b[13]
*46 b[14]
*47 b[15]
*48 b[16]
*49 b[17]
*50 b[18]
*51 b[1]
*52 b[2]
*53 b[3]
*54 b[4]
*55 b[5]
*56 b[6]
*57 b[7]
*58 b[8]
*59 b[9]
*60 beta[0]
*61 beta[10]
*62 beta[11]
*63 beta[12]
*64 beta[13]
*65 beta[14]
*66 beta[15]
*67 beta[16]
*68 beta[17]
*69 beta[18]
*70 beta[1]
*71 beta[2]
*72 beta[3]
*73 beta[4]
*74 beta[5]
*75 beta[6]
*76 beta[7]
*77 beta[8]
*78 beta[9]
*79 clk
*80 done
*81 rstb
*82 start
*83 _0000_
*84 _0001_
*85 _0002_
*86 _0003_
*87 _0004_
*88 _0005_
*89 _0006_
*90 _0007_
*91 _0008_
*92 _0009_
*93 _0010_
*94 _0011_
*95 _0012_
*96 _0013_
*97 _0014_
*98 _0015_
*99 _0016_
*100 _0017_
*101 _0018_
*102 _0019_
*103 _0020_
*104 _0021_
*105 _0022_
*106 _0023_
*107 _0024_
*108 _0025_
*109 _0026_
*110 _0027_
*111 _0028_
*112 _0029_
*113 _0030_
*114 _0031_
*115 _0032_
*116 _0033_
*117 _0034_
*118 _0035_
*119 _0036_
*120 _0037_
*121 _0038_
*122 _0039_
*123 _0040_
*124 _0041_
*125 _0042_
*126 _0043_
*127 _0044_
*128 _0045_
*129 _0046_
*130 _0047_
*131 _0048_
*132 _0049_
*133 _0050_
*134 _0051_
*135 _0052_
*136 _0053_
*137 _0054_
*138 _0055_
*139 _0056_
*140 _0057_
*141 _0058_
*142 _0059_
*143 _0060_
*144 _0061_
*145 _0062_
*146 _0063_
*147 _0064_
*148 _0065_
*149 _0066_
*150 _0067_
*151 _0068_
*152 _0069_
*153 _0070_
*154 _0071_
*155 _0072_
*156 _0073_
*157 _0074_
*158 _0075_
*159 _0076_
*160 _0077_
*161 _0078_
*162 _0079_
*163 _0080_
*164 _0081_
*165 _0082_
*166 _0083_
*167 _0084_
*168 _0085_
*169 _0086_
*170 _0087_
*171 _0088_
*172 _0089_
*173 _0090_
*174 _0091_
*175 _0092_
*176 _0093_
*177 _0094_
*178 _0095_
*179 _0096_
*180 _0097_
*181 _0098_
*182 _0099_
*183 _0100_
*184 _0101_
*185 _0102_
*186 _0103_
*187 _0104_
*188 _0105_
*189 _0106_
*190 _0107_
*191 _0108_
*192 _0109_
*193 _0110_
*194 _0111_
*195 _0112_
*196 _0113_
*197 _0114_
*198 _0115_
*199 _0116_
*200 _0117_
*201 _0118_
*202 _0119_
*203 _0120_
*204 _0121_
*205 _0122_
*206 _0123_
*207 _0124_
*208 _0125_
*209 _0126_
*210 _0127_
*211 _0128_
*212 _0129_
*213 _0130_
*214 _0131_
*215 _0132_
*216 _0133_
*217 _0134_
*218 _0135_
*219 _0136_
*220 _0137_
*221 _0138_
*222 _0139_
*223 _0140_
*224 _0141_
*225 _0142_
*226 _0143_
*227 _0144_
*228 _0145_
*229 _0146_
*230 _0147_
*231 _0148_
*232 _0149_
*233 _0150_
*234 _0151_
*235 _0152_
*236 _0153_
*237 _0154_
*238 _0155_
*239 _0156_
*240 _0157_
*241 _0158_
*242 _0159_
*243 _0160_
*244 _0161_
*245 _0162_
*246 _0163_
*247 _0164_
*248 _0165_
*249 _0166_
*250 _0167_
*251 _0168_
*252 _0169_
*253 _0170_
*254 _0171_
*255 _0172_
*256 _0173_
*257 _0174_
*258 _0175_
*259 _0176_
*260 _0177_
*261 _0178_
*262 _0179_
*263 _0180_
*264 _0181_
*265 _0182_
*266 _0183_
*267 _0184_
*268 _0185_
*269 _0186_
*270 _0187_
*271 _0188_
*272 _0189_
*273 _0190_
*274 _0191_
*275 _0192_
*276 _0193_
*277 _0194_
*278 _0195_
*279 _0196_
*280 _0197_
*281 _0198_
*282 _0199_
*283 _0200_
*284 _0201_
*285 _0202_
*286 _0203_
*287 _0204_
*288 _0205_
*289 _0206_
*290 _0207_
*291 _0208_
*292 _0209_
*293 _0210_
*294 _0211_
*295 _0212_
*296 _0213_
*297 _0214_
*298 _0215_
*299 _0216_
*300 _0217_
*301 _0218_
*302 _0219_
*303 _0220_
*304 _0221_
*305 _0222_
*306 _0223_
*307 _0224_
*308 _0225_
*309 _0226_
*310 _0227_
*311 _0228_
*312 _0229_
*313 _0230_
*314 _0231_
*315 _0232_
*316 _0233_
*317 _0234_
*318 _0235_
*319 _0236_
*320 _0237_
*321 _0238_
*322 _0239_
*323 _0240_
*324 _0241_
*325 _0242_
*326 _0243_
*327 _0244_
*328 _0245_
*329 _0246_
*330 _0247_
*331 _0248_
*332 _0249_
*333 _0250_
*334 _0251_
*335 _0252_
*336 _0253_
*337 _0254_
*338 _0255_
*339 _0256_
*340 _0257_
*341 _0258_
*342 _0259_
*343 _0260_
*344 _0261_
*345 _0262_
*346 _0263_
*347 _0264_
*348 _0265_
*349 _0266_
*350 _0267_
*351 _0268_
*352 _0269_
*353 _0270_
*354 _0271_
*355 _0272_
*356 _0273_
*357 _0274_
*358 _0275_
*359 _0276_
*360 _0277_
*361 _0278_
*362 _0279_
*363 _0280_
*364 _0281_
*365 _0282_
*366 _0283_
*367 _0284_
*368 _0285_
*369 _0286_
*370 _0287_
*371 _0288_
*372 _0289_
*373 _0290_
*374 _0291_
*375 _0292_
*376 _0293_
*377 _0294_
*378 _0295_
*379 _0296_
*380 _0297_
*381 _0298_
*382 _0299_
*383 _0300_
*384 _0301_
*385 _0302_
*386 _0303_
*387 _0304_
*388 _0305_
*389 _0306_
*390 _0307_
*391 _0308_
*392 _0309_
*393 _0310_
*394 _0311_
*395 _0312_
*396 _0313_
*397 _0314_
*398 _0315_
*399 _0316_
*400 _0317_
*401 _0318_
*402 _0319_
*403 _0320_
*404 _0321_
*405 _0322_
*406 _0323_
*407 _0324_
*408 _0325_
*409 _0326_
*410 _0327_
*411 _0328_
*412 _0329_
*413 _0330_
*414 _0331_
*415 _0332_
*416 _0333_
*417 _0334_
*418 _0335_
*419 _0336_
*420 _0337_
*421 _0338_
*422 _0339_
*423 _0340_
*424 _0341_
*425 _0342_
*426 _0343_
*427 _0344_
*428 _0345_
*429 _0346_
*430 _0347_
*431 _0348_
*432 _0349_
*433 _0350_
*434 _0351_
*435 _0352_
*436 _0353_
*437 _0354_
*438 _0355_
*439 _0356_
*440 _0357_
*441 _0358_
*442 _0359_
*443 _0360_
*444 _0361_
*445 _0362_
*446 _0363_
*447 _0364_
*448 _0365_
*449 _0366_
*450 _0367_
*451 _0368_
*452 _0369_
*453 _0370_
*454 _0371_
*455 _0372_
*456 _0373_
*457 _0374_
*458 _0375_
*459 _0376_
*460 _0377_
*461 _0378_
*462 _0379_
*463 _0380_
*464 _0381_
*465 _0382_
*466 _0383_
*467 _0384_
*468 _0385_
*469 _0386_
*470 _0387_
*471 _0388_
*472 _0389_
*473 _0390_
*474 _0391_
*475 _0392_
*476 _0393_
*477 _0394_
*478 _0395_
*479 _0396_
*480 _0397_
*481 _0398_
*482 _0399_
*483 _0400_
*484 _0401_
*485 _0402_
*486 _0403_
*487 _0404_
*488 _0405_
*489 _0406_
*490 _0407_
*491 _0408_
*492 _0409_
*493 _0410_
*494 _0411_
*495 _0412_
*496 _0413_
*497 _0414_
*498 _0415_
*499 _0416_
*500 _0417_
*501 _0418_
*502 _0419_
*503 _0420_
*504 _0421_
*505 _0422_
*506 _0423_
*507 _0424_
*508 _0425_
*509 _0426_
*510 _0427_
*511 _0428_
*512 _0429_
*513 _0430_
*514 _0431_
*515 _0432_
*516 _0433_
*517 _0434_
*518 _0435_
*519 _0436_
*520 _0437_
*521 _0438_
*522 _0439_
*523 _0440_
*524 _0441_
*525 _0442_
*526 _0443_
*527 _0444_
*528 _0445_
*529 _0446_
*530 _0447_
*531 _0448_
*532 _0449_
*533 _0450_
*534 _0451_
*535 _0452_
*536 _0453_
*537 _0454_
*538 _0455_
*539 _0456_
*540 _0457_
*541 _0458_
*542 _0459_
*543 _0460_
*544 _0461_
*545 _0462_
*546 _0463_
*547 _0464_
*548 _0465_
*549 _0466_
*550 _0467_
*551 _0468_
*552 _0469_
*553 _0470_
*554 _0471_
*555 _0472_
*556 _0473_
*557 _0474_
*558 _0475_
*559 _0476_
*560 _0477_
*561 _0478_
*562 _0479_
*563 _0480_
*564 _0481_
*565 _0482_
*566 _0483_
*567 _0484_
*568 _0485_
*569 _0486_
*570 _0487_
*571 _0488_
*572 _0489_
*573 _0490_
*574 _0491_
*575 _0492_
*576 _0493_
*577 _0494_
*578 _0495_
*579 _0496_
*580 _0497_
*581 _0498_
*582 _0499_
*583 _0500_
*584 _0501_
*585 _0502_
*586 _0503_
*587 _0504_
*588 _0505_
*589 _0506_
*590 _0507_
*591 _0508_
*592 _0509_
*593 _0510_
*594 _0511_
*595 _0512_
*596 _0513_
*597 _0514_
*598 _0515_
*599 _0516_
*600 _0517_
*601 _0518_
*602 _0519_
*603 _0520_
*604 _0521_
*605 _0522_
*606 _0523_
*607 _0524_
*608 _0525_
*609 _0526_
*610 _0527_
*611 _0528_
*612 _0529_
*613 _0530_
*614 _0531_
*615 _0532_
*616 _0533_
*617 _0534_
*618 _0535_
*619 _0536_
*620 _0537_
*621 _0538_
*622 _0539_
*623 _0540_
*624 _0541_
*625 _0542_
*626 _0543_
*627 _0544_
*628 _0545_
*629 _0546_
*630 _0547_
*631 _0548_
*632 _0549_
*633 _0550_
*634 _0551_
*635 _0552_
*636 _0553_
*637 _0554_
*638 _0555_
*639 _0556_
*640 _0557_
*641 _0558_
*642 _0559_
*643 _0560_
*644 _0561_
*645 _0562_
*646 _0563_
*647 _0564_
*648 _0565_
*649 _0566_
*650 _0567_
*651 _0568_
*652 _0569_
*653 _0570_
*654 _0571_
*655 _0572_
*656 _0573_
*657 _0574_
*658 _0575_
*659 _0576_
*660 _0577_
*661 _0578_
*662 _0579_
*663 _0580_
*664 _0581_
*665 _0582_
*666 _0583_
*667 _0584_
*668 _0585_
*669 _0586_
*670 _0587_
*671 _0588_
*672 _0589_
*673 _0590_
*674 _0591_
*675 _0592_
*676 _0593_
*677 _0594_
*678 _0595_
*679 _0596_
*680 _0597_
*681 _0598_
*682 _0599_
*683 _0600_
*684 _0601_
*685 _0602_
*686 _0603_
*687 _0604_
*688 _0605_
*689 _0606_
*690 _0607_
*691 _0608_
*692 _0609_
*693 _0610_
*694 _0611_
*695 _0612_
*696 _0613_
*697 _0614_
*698 _0615_
*699 _0616_
*700 _0617_
*701 _0618_
*702 _0619_
*703 _0620_
*704 _0621_
*705 _0622_
*706 _0623_
*707 _0624_
*708 _0625_
*709 _0626_
*710 _0627_
*711 _0628_
*712 _0629_
*713 _0630_
*714 _0631_
*715 _0632_
*716 _0633_
*717 _0634_
*718 _0635_
*719 _0636_
*720 _0637_
*721 _0638_
*722 _0639_
*723 _0640_
*724 _0641_
*725 _0642_
*726 _0643_
*727 _0644_
*728 _0645_
*729 _0646_
*730 _0647_
*731 _0648_
*732 _0649_
*733 _0650_
*734 _0651_
*735 _0652_
*736 _0653_
*737 _0654_
*738 _0655_
*739 _0656_
*740 _0657_
*741 _0658_
*742 _0659_
*743 _0660_
*744 _0661_
*745 _0662_
*746 _0663_
*747 _0664_
*748 _0665_
*749 _0666_
*750 _0667_
*751 _0668_
*752 _0669_
*753 _0670_
*754 _0671_
*755 _0672_
*756 _0673_
*757 _0674_
*758 _0675_
*759 _0676_
*760 _0677_
*761 _0678_
*762 _0679_
*763 _0680_
*764 _0681_
*765 _0682_
*766 _0683_
*767 _0684_
*768 _0685_
*769 _0686_
*770 _0687_
*771 _0688_
*772 _0689_
*773 _0690_
*774 _0691_
*775 _0692_
*776 _0693_
*777 _0694_
*778 _0695_
*779 _0696_
*780 _0697_
*781 _0698_
*782 _0699_
*783 _0700_
*784 _0701_
*785 _0702_
*786 _0703_
*787 _0704_
*788 _0705_
*789 _0706_
*790 _0707_
*791 _0708_
*792 _0709_
*793 _0710_
*794 _0711_
*795 _0712_
*796 _0713_
*797 _0714_
*798 _0715_
*799 _0716_
*800 _0717_
*801 _0718_
*802 _0719_
*803 _0720_
*804 _0721_
*805 _0722_
*806 _0723_
*807 _0724_
*808 _0725_
*809 _0726_
*810 _0727_
*811 _0728_
*812 _0729_
*813 _0730_
*814 _0731_
*815 _0732_
*816 _0733_
*817 _0734_
*818 _0735_
*819 _0736_
*820 _0737_
*821 _0738_
*822 _0739_
*823 _0740_
*824 _0741_
*825 _0742_
*826 _0743_
*827 _0744_
*828 _0745_
*829 _0746_
*830 _0747_
*831 _0748_
*832 _0749_
*833 _0750_
*834 _0751_
*835 _0752_
*836 _0753_
*837 _0754_
*838 _0755_
*839 _0756_
*840 _0757_
*841 _0758_
*842 _0759_
*843 _0760_
*844 _0761_
*845 _0762_
*846 _0763_
*847 _0764_
*848 _0765_
*849 _0766_
*850 _0767_
*851 _0768_
*852 _0769_
*853 _0770_
*854 _0771_
*855 _0772_
*856 _0773_
*857 _0774_
*858 _0775_
*859 _0776_
*860 _0777_
*861 _0778_
*862 _0779_
*863 _0780_
*864 _0781_
*865 _0782_
*866 _0783_
*867 _0784_
*868 _0785_
*869 _0786_
*870 _0787_
*871 _0788_
*872 _0789_
*873 _0790_
*874 _0791_
*875 _0792_
*876 _0793_
*877 _0794_
*878 _0795_
*879 _0796_
*880 _0797_
*881 _0798_
*882 _0799_
*883 _0800_
*884 _0801_
*885 _0802_
*886 _0803_
*887 _0804_
*888 _0805_
*889 _0806_
*890 _0807_
*891 _0808_
*892 _0809_
*893 _0810_
*894 _0811_
*895 _0812_
*896 _0813_
*897 _0814_
*898 _0815_
*899 _0816_
*900 _0817_
*901 _0818_
*902 _0819_
*903 _0820_
*904 _0821_
*905 _0822_
*906 _0823_
*907 _0824_
*908 _0825_
*909 _0826_
*910 _0827_
*911 _0828_
*912 _0829_
*913 _0830_
*914 _0831_
*915 _0832_
*916 _0833_
*917 _0834_
*918 _0835_
*919 _0836_
*920 _0837_
*921 _0838_
*922 _0839_
*923 _0840_
*924 _0841_
*925 _0842_
*926 _0843_
*927 _0844_
*928 _0845_
*929 _0846_
*930 _0847_
*931 _0848_
*932 _0849_
*933 _0850_
*934 _0851_
*935 _0852_
*936 _0853_
*937 _0854_
*938 _0855_
*939 _0856_
*940 _0857_
*941 _0858_
*942 _0859_
*943 _0860_
*944 _0861_
*945 _0862_
*946 _0863_
*947 _0864_
*948 _0865_
*949 _0866_
*950 _0867_
*951 _0868_
*952 _0869_
*953 _0870_
*954 _0871_
*955 _0872_
*956 _0873_
*957 _0874_
*958 _0875_
*959 _0876_
*960 _0877_
*961 _0878_
*962 _0879_
*963 _0880_
*964 _0881_
*965 _0882_
*966 _0883_
*967 _0884_
*968 _0885_
*969 _0886_
*970 _0887_
*971 _0888_
*972 _0889_
*973 _0890_
*974 _0891_
*975 _0892_
*976 _0893_
*977 _0894_
*978 _0895_
*979 _0896_
*980 _0897_
*981 _0898_
*982 _0899_
*983 _0900_
*984 _0901_
*985 _0902_
*986 _0903_
*987 _0904_
*988 _0905_
*989 _0906_
*990 _0907_
*991 _0908_
*992 _0909_
*993 _0910_
*994 _0911_
*995 _0912_
*996 _0913_
*997 _0914_
*998 _0915_
*999 _0916_
*1000 _0917_
*1001 _0918_
*1002 _0919_
*1003 _0920_
*1004 _0921_
*1005 _0922_
*1006 _0923_
*1007 _0924_
*1008 _0925_
*1009 _0926_
*1010 _0927_
*1011 _0928_
*1012 _0929_
*1013 _0930_
*1014 _0931_
*1015 _0932_
*1016 _0933_
*1017 _0934_
*1018 _0935_
*1019 _0936_
*1020 _0937_
*1021 _0938_
*1022 _0939_
*1023 _0940_
*1024 _0941_
*1025 _0942_
*1026 _0943_
*1027 _0944_
*1028 _0945_
*1029 _0946_
*1030 _0947_
*1031 _0948_
*1032 _0949_
*1033 _0950_
*1034 _0951_
*1035 _0952_
*1036 _0953_
*1037 _0954_
*1038 _0955_
*1039 _0956_
*1040 _0957_
*1041 _0958_
*1042 _0959_
*1043 _0960_
*1044 _0961_
*1045 _0962_
*1046 _0963_
*1047 _0964_
*1048 _0965_
*1049 _0966_
*1050 _0967_
*1051 _0968_
*1052 _0969_
*1053 _0970_
*1054 _0971_
*1055 _0972_
*1056 _0973_
*1057 _0974_
*1058 _0975_
*1059 _0976_
*1060 _0977_
*1061 _0978_
*1062 _0979_
*1063 _0980_
*1064 _0981_
*1065 _0982_
*1066 _0983_
*1067 _0984_
*1068 _0985_
*1069 _0986_
*1070 _0987_
*1071 _0988_
*1072 _0989_
*1073 _0990_
*1074 _0991_
*1075 _0992_
*1076 _0993_
*1077 _0994_
*1078 _0995_
*1079 _0996_
*1080 _0997_
*1081 clknet_0_clk
*1082 clknet_2_0__leaf_clk
*1083 clknet_2_1__leaf_clk
*1084 clknet_2_2__leaf_clk
*1085 clknet_2_3__leaf_clk
*1086 net1
*1087 net10
*1088 net100
*1089 net101
*1090 net102
*1091 net103
*1092 net104
*1093 net105
*1094 net106
*1095 net107
*1096 net108
*1097 net109
*1098 net11
*1099 net110
*1100 net111
*1101 net112
*1102 net113
*1103 net114
*1104 net115
*1105 net116
*1106 net117
*1107 net118
*1108 net119
*1109 net12
*1110 net120
*1111 net121
*1112 net122
*1113 net123
*1114 net124
*1115 net125
*1116 net126
*1117 net127
*1118 net128
*1119 net129
*1120 net13
*1121 net130
*1122 net131
*1123 net132
*1124 net133
*1125 net134
*1126 net135
*1127 net136
*1128 net14
*1129 net15
*1130 net16
*1131 net17
*1132 net18
*1133 net19
*1134 net2
*1135 net20
*1136 net21
*1137 net22
*1138 net23
*1139 net24
*1140 net25
*1141 net26
*1142 net27
*1143 net28
*1144 net29
*1145 net3
*1146 net30
*1147 net31
*1148 net32
*1149 net33
*1150 net34
*1151 net35
*1152 net36
*1153 net37
*1154 net38
*1155 net39
*1156 net4
*1157 net40
*1158 net41
*1159 net42
*1160 net43
*1161 net44
*1162 net45
*1163 net46
*1164 net47
*1165 net48
*1166 net49
*1167 net5
*1168 net50
*1169 net51
*1170 net52
*1171 net53
*1172 net54
*1173 net55
*1174 net56
*1175 net57
*1176 net58
*1177 net59
*1178 net6
*1179 net60
*1180 net61
*1181 net62
*1182 net63
*1183 net64
*1184 net65
*1185 net66
*1186 net67
*1187 net68
*1188 net69
*1189 net7
*1190 net70
*1191 net71
*1192 net72
*1193 net73
*1194 net74
*1195 net75
*1196 net76
*1197 net77
*1198 net78
*1199 net79
*1200 net8
*1201 net80
*1202 net81
*1203 net82
*1204 net83
*1205 net84
*1206 net85
*1207 net86
*1208 net87
*1209 net88
*1210 net89
*1211 net9
*1212 net90
*1213 net91
*1214 net92
*1215 net93
*1216 net94
*1217 net95
*1218 net96
*1219 net97
*1220 net98
*1221 net99
*1222 FILLER_0_0_101
*1223 FILLER_0_0_109
*1224 FILLER_0_0_113
*1225 FILLER_0_0_121
*1226 FILLER_0_0_129
*1227 FILLER_0_0_137
*1228 FILLER_0_0_141
*1229 FILLER_0_0_149
*1230 FILLER_0_0_157
*1231 FILLER_0_0_165
*1232 FILLER_0_0_169
*1233 FILLER_0_0_177
*1234 FILLER_0_0_183
*1235 FILLER_0_0_19
*1236 FILLER_0_0_191
*1237 FILLER_0_0_202
*1238 FILLER_0_0_209
*1239 FILLER_0_0_217
*1240 FILLER_0_0_225
*1241 FILLER_0_0_233
*1242 FILLER_0_0_240
*1243 FILLER_0_0_248
*1244 FILLER_0_0_253
*1245 FILLER_0_0_261
*1246 FILLER_0_0_269
*1247 FILLER_0_0_27
*1248 FILLER_0_0_277
*1249 FILLER_0_0_281
*1250 FILLER_0_0_289
*1251 FILLER_0_0_29
*1252 FILLER_0_0_297
*1253 FILLER_0_0_3
*1254 FILLER_0_0_37
*1255 FILLER_0_0_45
*1256 FILLER_0_0_53
*1257 FILLER_0_0_57
*1258 FILLER_0_0_65
*1259 FILLER_0_0_69
*1260 FILLER_0_0_73
*1261 FILLER_0_0_81
*1262 FILLER_0_0_85
*1263 FILLER_0_0_93
*1264 FILLER_0_10_103
*1265 FILLER_0_10_111
*1266 FILLER_0_10_119
*1267 FILLER_0_10_135
*1268 FILLER_0_10_139
*1269 FILLER_0_10_149
*1270 FILLER_0_10_157
*1271 FILLER_0_10_17
*1272 FILLER_0_10_171
*1273 FILLER_0_10_179
*1274 FILLER_0_10_183
*1275 FILLER_0_10_195
*1276 FILLER_0_10_200
*1277 FILLER_0_10_206
*1278 FILLER_0_10_214
*1279 FILLER_0_10_230
*1280 FILLER_0_10_235
*1281 FILLER_0_10_249
*1282 FILLER_0_10_25
*1283 FILLER_0_10_287
*1284 FILLER_0_10_29
*1285 FILLER_0_10_3
*1286 FILLER_0_10_307
*1287 FILLER_0_10_37
*1288 FILLER_0_10_45
*1289 FILLER_0_10_53
*1290 FILLER_0_10_61
*1291 FILLER_0_10_72
*1292 FILLER_0_10_80
*1293 FILLER_0_10_85
*1294 FILLER_0_10_89
*1295 FILLER_0_11_108
*1296 FILLER_0_11_113
*1297 FILLER_0_11_121
*1298 FILLER_0_11_129
*1299 FILLER_0_11_137
*1300 FILLER_0_11_145
*1301 FILLER_0_11_149
*1302 FILLER_0_11_160
*1303 FILLER_0_11_169
*1304 FILLER_0_11_175
*1305 FILLER_0_11_187
*1306 FILLER_0_11_195
*1307 FILLER_0_11_203
*1308 FILLER_0_11_223
*1309 FILLER_0_11_230
*1310 FILLER_0_11_242
*1311 FILLER_0_11_250
*1312 FILLER_0_11_259
*1313 FILLER_0_11_281
*1314 FILLER_0_11_289
*1315 FILLER_0_11_301
*1316 FILLER_0_11_308
*1317 FILLER_0_11_32
*1318 FILLER_0_11_40
*1319 FILLER_0_11_48
*1320 FILLER_0_11_57
*1321 FILLER_0_11_65
*1322 FILLER_0_11_73
*1323 FILLER_0_11_81
*1324 FILLER_0_11_89
*1325 FILLER_0_12_100
*1326 FILLER_0_12_11
*1327 FILLER_0_12_118
*1328 FILLER_0_12_130
*1329 FILLER_0_12_147
*1330 FILLER_0_12_161
*1331 FILLER_0_12_169
*1332 FILLER_0_12_177
*1333 FILLER_0_12_185
*1334 FILLER_0_12_189
*1335 FILLER_0_12_19
*1336 FILLER_0_12_193
*1337 FILLER_0_12_197
*1338 FILLER_0_12_205
*1339 FILLER_0_12_213
*1340 FILLER_0_12_221
*1341 FILLER_0_12_229
*1342 FILLER_0_12_236
*1343 FILLER_0_12_240
*1344 FILLER_0_12_247
*1345 FILLER_0_12_251
*1346 FILLER_0_12_253
*1347 FILLER_0_12_261
*1348 FILLER_0_12_269
*1349 FILLER_0_12_27
*1350 FILLER_0_12_274
*1351 FILLER_0_12_286
*1352 FILLER_0_12_29
*1353 FILLER_0_12_296
*1354 FILLER_0_12_3
*1355 FILLER_0_12_37
*1356 FILLER_0_12_45
*1357 FILLER_0_12_53
*1358 FILLER_0_12_61
*1359 FILLER_0_12_69
*1360 FILLER_0_12_7
*1361 FILLER_0_12_85
*1362 FILLER_0_13_103
*1363 FILLER_0_13_111
*1364 FILLER_0_13_113
*1365 FILLER_0_13_121
*1366 FILLER_0_13_133
*1367 FILLER_0_13_141
*1368 FILLER_0_13_149
*1369 FILLER_0_13_158
*1370 FILLER_0_13_166
*1371 FILLER_0_13_169
*1372 FILLER_0_13_17
*1373 FILLER_0_13_177
*1374 FILLER_0_13_185
*1375 FILLER_0_13_204
*1376 FILLER_0_13_211
*1377 FILLER_0_13_219
*1378 FILLER_0_13_223
*1379 FILLER_0_13_225
*1380 FILLER_0_13_25
*1381 FILLER_0_13_257
*1382 FILLER_0_13_262
*1383 FILLER_0_13_275
*1384 FILLER_0_13_279
*1385 FILLER_0_13_281
*1386 FILLER_0_13_289
*1387 FILLER_0_13_308
*1388 FILLER_0_13_33
*1389 FILLER_0_13_41
*1390 FILLER_0_13_49
*1391 FILLER_0_13_55
*1392 FILLER_0_13_57
*1393 FILLER_0_13_68
*1394 FILLER_0_13_74
*1395 FILLER_0_13_79
*1396 FILLER_0_13_87
*1397 FILLER_0_13_9
*1398 FILLER_0_13_95
*1399 FILLER_0_14_107
*1400 FILLER_0_14_129
*1401 FILLER_0_14_137
*1402 FILLER_0_14_154
*1403 FILLER_0_14_162
*1404 FILLER_0_14_17
*1405 FILLER_0_14_170
*1406 FILLER_0_14_178
*1407 FILLER_0_14_186
*1408 FILLER_0_14_194
*1409 FILLER_0_14_197
*1410 FILLER_0_14_224
*1411 FILLER_0_14_238
*1412 FILLER_0_14_246
*1413 FILLER_0_14_25
*1414 FILLER_0_14_273
*1415 FILLER_0_14_277
*1416 FILLER_0_14_29
*1417 FILLER_0_14_307
*1418 FILLER_0_14_37
*1419 FILLER_0_14_45
*1420 FILLER_0_14_53
*1421 FILLER_0_14_71
*1422 FILLER_0_14_81
*1423 FILLER_0_14_85
*1424 FILLER_0_14_9
*1425 FILLER_0_14_93
*1426 FILLER_0_15_106
*1427 FILLER_0_15_133
*1428 FILLER_0_15_140
*1429 FILLER_0_15_149
*1430 FILLER_0_15_161
*1431 FILLER_0_15_167
*1432 FILLER_0_15_17
*1433 FILLER_0_15_179
*1434 FILLER_0_15_183
*1435 FILLER_0_15_191
*1436 FILLER_0_15_216
*1437 FILLER_0_15_225
*1438 FILLER_0_15_238
*1439 FILLER_0_15_25
*1440 FILLER_0_15_257
*1441 FILLER_0_15_268
*1442 FILLER_0_15_272
*1443 FILLER_0_15_281
*1444 FILLER_0_15_308
*1445 FILLER_0_15_33
*1446 FILLER_0_15_41
*1447 FILLER_0_15_49
*1448 FILLER_0_15_55
*1449 FILLER_0_15_57
*1450 FILLER_0_15_65
*1451 FILLER_0_15_9
*1452 FILLER_0_16_108
*1453 FILLER_0_16_123
*1454 FILLER_0_16_131
*1455 FILLER_0_16_139
*1456 FILLER_0_16_172
*1457 FILLER_0_16_186
*1458 FILLER_0_16_192
*1459 FILLER_0_16_197
*1460 FILLER_0_16_204
*1461 FILLER_0_16_213
*1462 FILLER_0_16_221
*1463 FILLER_0_16_23
*1464 FILLER_0_16_244
*1465 FILLER_0_16_253
*1466 FILLER_0_16_257
*1467 FILLER_0_16_27
*1468 FILLER_0_16_29
*1469 FILLER_0_16_37
*1470 FILLER_0_16_45
*1471 FILLER_0_16_51
*1472 FILLER_0_16_59
*1473 FILLER_0_16_68
*1474 FILLER_0_16_72
*1475 FILLER_0_16_80
*1476 FILLER_0_16_85
*1477 FILLER_0_17_103
*1478 FILLER_0_17_111
*1479 FILLER_0_17_133
*1480 FILLER_0_17_141
*1481 FILLER_0_17_149
*1482 FILLER_0_17_154
*1483 FILLER_0_17_162
*1484 FILLER_0_17_173
*1485 FILLER_0_17_184
*1486 FILLER_0_17_202
*1487 FILLER_0_17_216
*1488 FILLER_0_17_238
*1489 FILLER_0_17_260
*1490 FILLER_0_17_268
*1491 FILLER_0_17_276
*1492 FILLER_0_17_38
*1493 FILLER_0_17_54
*1494 FILLER_0_17_73
*1495 FILLER_0_17_82
*1496 FILLER_0_17_95
*1497 FILLER_0_18_101
*1498 FILLER_0_18_112
*1499 FILLER_0_18_12
*1500 FILLER_0_18_120
*1501 FILLER_0_18_136
*1502 FILLER_0_18_141
*1503 FILLER_0_18_147
*1504 FILLER_0_18_157
*1505 FILLER_0_18_161
*1506 FILLER_0_18_172
*1507 FILLER_0_18_180
*1508 FILLER_0_18_189
*1509 FILLER_0_18_195
*1510 FILLER_0_18_197
*1511 FILLER_0_18_203
*1512 FILLER_0_18_208
*1513 FILLER_0_18_216
*1514 FILLER_0_18_224
*1515 FILLER_0_18_232
*1516 FILLER_0_18_246
*1517 FILLER_0_18_26
*1518 FILLER_0_18_29
*1519 FILLER_0_18_39
*1520 FILLER_0_18_47
*1521 FILLER_0_18_55
*1522 FILLER_0_18_59
*1523 FILLER_0_18_73
*1524 FILLER_0_18_81
*1525 FILLER_0_18_85
*1526 FILLER_0_18_93
*1527 FILLER_0_19_104
*1528 FILLER_0_19_11
*1529 FILLER_0_19_113
*1530 FILLER_0_19_121
*1531 FILLER_0_19_125
*1532 FILLER_0_19_142
*1533 FILLER_0_19_152
*1534 FILLER_0_19_160
*1535 FILLER_0_19_166
*1536 FILLER_0_19_169
*1537 FILLER_0_19_177
*1538 FILLER_0_19_184
*1539 FILLER_0_19_19
*1540 FILLER_0_19_192
*1541 FILLER_0_19_199
*1542 FILLER_0_19_207
*1543 FILLER_0_19_217
*1544 FILLER_0_19_221
*1545 FILLER_0_19_228
*1546 FILLER_0_19_23
*1547 FILLER_0_19_252
*1548 FILLER_0_19_27
*1549 FILLER_0_19_279
*1550 FILLER_0_19_281
*1551 FILLER_0_19_291
*1552 FILLER_0_19_3
*1553 FILLER_0_19_307
*1554 FILLER_0_19_35
*1555 FILLER_0_19_43
*1556 FILLER_0_19_47
*1557 FILLER_0_19_53
*1558 FILLER_0_19_64
*1559 FILLER_0_19_72
*1560 FILLER_0_19_81
*1561 FILLER_0_1_101
*1562 FILLER_0_1_109
*1563 FILLER_0_1_11
*1564 FILLER_0_1_113
*1565 FILLER_0_1_124
*1566 FILLER_0_1_132
*1567 FILLER_0_1_154
*1568 FILLER_0_1_160
*1569 FILLER_0_1_180
*1570 FILLER_0_1_199
*1571 FILLER_0_1_22
*1572 FILLER_0_1_222
*1573 FILLER_0_1_225
*1574 FILLER_0_1_229
*1575 FILLER_0_1_259
*1576 FILLER_0_1_267
*1577 FILLER_0_1_275
*1578 FILLER_0_1_279
*1579 FILLER_0_1_293
*1580 FILLER_0_1_3
*1581 FILLER_0_1_30
*1582 FILLER_0_1_301
*1583 FILLER_0_1_305
*1584 FILLER_0_1_38
*1585 FILLER_0_1_46
*1586 FILLER_0_1_54
*1587 FILLER_0_1_57
*1588 FILLER_0_1_63
*1589 FILLER_0_1_93
*1590 FILLER_0_20_122
*1591 FILLER_0_20_128
*1592 FILLER_0_20_136
*1593 FILLER_0_20_145
*1594 FILLER_0_20_151
*1595 FILLER_0_20_156
*1596 FILLER_0_20_173
*1597 FILLER_0_20_186
*1598 FILLER_0_20_190
*1599 FILLER_0_20_210
*1600 FILLER_0_20_215
*1601 FILLER_0_20_23
*1602 FILLER_0_20_239
*1603 FILLER_0_20_243
*1604 FILLER_0_20_249
*1605 FILLER_0_20_253
*1606 FILLER_0_20_257
*1607 FILLER_0_20_261
*1608 FILLER_0_20_27
*1609 FILLER_0_20_78
*1610 FILLER_0_20_85
*1611 FILLER_0_20_99
*1612 FILLER_0_21_111
*1613 FILLER_0_21_113
*1614 FILLER_0_21_121
*1615 FILLER_0_21_136
*1616 FILLER_0_21_144
*1617 FILLER_0_21_163
*1618 FILLER_0_21_167
*1619 FILLER_0_21_169
*1620 FILLER_0_21_177
*1621 FILLER_0_21_185
*1622 FILLER_0_21_193
*1623 FILLER_0_21_201
*1624 FILLER_0_21_205
*1625 FILLER_0_21_212
*1626 FILLER_0_21_218
*1627 FILLER_0_21_231
*1628 FILLER_0_21_237
*1629 FILLER_0_21_3
*1630 FILLER_0_21_38
*1631 FILLER_0_21_42
*1632 FILLER_0_21_48
*1633 FILLER_0_21_57
*1634 FILLER_0_21_61
*1635 FILLER_0_21_80
*1636 FILLER_0_21_94
*1637 FILLER_0_22_121
*1638 FILLER_0_22_129
*1639 FILLER_0_22_137
*1640 FILLER_0_22_151
*1641 FILLER_0_22_159
*1642 FILLER_0_22_167
*1643 FILLER_0_22_175
*1644 FILLER_0_22_193
*1645 FILLER_0_22_202
*1646 FILLER_0_22_247
*1647 FILLER_0_22_251
*1648 FILLER_0_22_26
*1649 FILLER_0_22_287
*1650 FILLER_0_22_29
*1651 FILLER_0_22_295
*1652 FILLER_0_22_299
*1653 FILLER_0_22_304
*1654 FILLER_0_22_37
*1655 FILLER_0_22_52
*1656 FILLER_0_22_60
*1657 FILLER_0_22_68
*1658 FILLER_0_22_75
*1659 FILLER_0_22_83
*1660 FILLER_0_22_88
*1661 FILLER_0_22_96
*1662 FILLER_0_23_103
*1663 FILLER_0_23_111
*1664 FILLER_0_23_139
*1665 FILLER_0_23_143
*1666 FILLER_0_23_154
*1667 FILLER_0_23_160
*1668 FILLER_0_23_164
*1669 FILLER_0_23_169
*1670 FILLER_0_23_175
*1671 FILLER_0_23_185
*1672 FILLER_0_23_222
*1673 FILLER_0_23_247
*1674 FILLER_0_23_285
*1675 FILLER_0_23_37
*1676 FILLER_0_23_41
*1677 FILLER_0_23_49
*1678 FILLER_0_23_55
*1679 FILLER_0_23_57
*1680 FILLER_0_23_75
*1681 FILLER_0_23_83
*1682 FILLER_0_23_9
*1683 FILLER_0_23_91
*1684 FILLER_0_24_104
*1685 FILLER_0_24_112
*1686 FILLER_0_24_131
*1687 FILLER_0_24_139
*1688 FILLER_0_24_141
*1689 FILLER_0_24_151
*1690 FILLER_0_24_167
*1691 FILLER_0_24_175
*1692 FILLER_0_24_188
*1693 FILLER_0_24_197
*1694 FILLER_0_24_204
*1695 FILLER_0_24_212
*1696 FILLER_0_24_218
*1697 FILLER_0_24_228
*1698 FILLER_0_24_23
*1699 FILLER_0_24_237
*1700 FILLER_0_24_245
*1701 FILLER_0_24_251
*1702 FILLER_0_24_253
*1703 FILLER_0_24_27
*1704 FILLER_0_24_29
*1705 FILLER_0_24_306
*1706 FILLER_0_24_34
*1707 FILLER_0_24_42
*1708 FILLER_0_24_46
*1709 FILLER_0_24_54
*1710 FILLER_0_24_62
*1711 FILLER_0_24_66
*1712 FILLER_0_24_99
*1713 FILLER_0_25_111
*1714 FILLER_0_25_126
*1715 FILLER_0_25_135
*1716 FILLER_0_25_14
*1717 FILLER_0_25_155
*1718 FILLER_0_25_163
*1719 FILLER_0_25_177
*1720 FILLER_0_25_194
*1721 FILLER_0_25_222
*1722 FILLER_0_25_241
*1723 FILLER_0_25_249
*1724 FILLER_0_25_279
*1725 FILLER_0_25_3
*1726 FILLER_0_25_308
*1727 FILLER_0_25_54
*1728 FILLER_0_25_57
*1729 FILLER_0_25_65
*1730 FILLER_0_25_73
*1731 FILLER_0_25_81
*1732 FILLER_0_25_89
*1733 FILLER_0_26_113
*1734 FILLER_0_26_121
*1735 FILLER_0_26_128
*1736 FILLER_0_26_161
*1737 FILLER_0_26_170
*1738 FILLER_0_26_178
*1739 FILLER_0_26_182
*1740 FILLER_0_26_187
*1741 FILLER_0_26_195
*1742 FILLER_0_26_197
*1743 FILLER_0_26_209
*1744 FILLER_0_26_228
*1745 FILLER_0_26_24
*1746 FILLER_0_26_240
*1747 FILLER_0_26_253
*1748 FILLER_0_26_261
*1749 FILLER_0_26_269
*1750 FILLER_0_26_29
*1751 FILLER_0_26_3
*1752 FILLER_0_26_37
*1753 FILLER_0_26_45
*1754 FILLER_0_26_53
*1755 FILLER_0_26_66
*1756 FILLER_0_26_80
*1757 FILLER_0_26_85
*1758 FILLER_0_27_13
*1759 FILLER_0_27_131
*1760 FILLER_0_27_137
*1761 FILLER_0_27_146
*1762 FILLER_0_27_152
*1763 FILLER_0_27_158
*1764 FILLER_0_27_167
*1765 FILLER_0_27_169
*1766 FILLER_0_27_177
*1767 FILLER_0_27_185
*1768 FILLER_0_27_193
*1769 FILLER_0_27_201
*1770 FILLER_0_27_21
*1771 FILLER_0_27_215
*1772 FILLER_0_27_223
*1773 FILLER_0_27_225
*1774 FILLER_0_27_231
*1775 FILLER_0_27_237
*1776 FILLER_0_27_247
*1777 FILLER_0_27_251
*1778 FILLER_0_27_264
*1779 FILLER_0_27_270
*1780 FILLER_0_27_29
*1781 FILLER_0_27_308
*1782 FILLER_0_27_35
*1783 FILLER_0_27_46
*1784 FILLER_0_27_50
*1785 FILLER_0_27_69
*1786 FILLER_0_27_82
*1787 FILLER_0_27_9
*1788 FILLER_0_27_90
*1789 FILLER_0_27_98
*1790 FILLER_0_28_101
*1791 FILLER_0_28_109
*1792 FILLER_0_28_117
*1793 FILLER_0_28_135
*1794 FILLER_0_28_139
*1795 FILLER_0_28_141
*1796 FILLER_0_28_150
*1797 FILLER_0_28_157
*1798 FILLER_0_28_172
*1799 FILLER_0_28_188
*1800 FILLER_0_28_192
*1801 FILLER_0_28_197
*1802 FILLER_0_28_205
*1803 FILLER_0_28_210
*1804 FILLER_0_28_218
*1805 FILLER_0_28_23
*1806 FILLER_0_28_250
*1807 FILLER_0_28_253
*1808 FILLER_0_28_27
*1809 FILLER_0_28_294
*1810 FILLER_0_28_3
*1811 FILLER_0_28_302
*1812 FILLER_0_28_44
*1813 FILLER_0_28_52
*1814 FILLER_0_28_88
*1815 FILLER_0_29_111
*1816 FILLER_0_29_116
*1817 FILLER_0_29_122
*1818 FILLER_0_29_129
*1819 FILLER_0_29_137
*1820 FILLER_0_29_151
*1821 FILLER_0_29_159
*1822 FILLER_0_29_167
*1823 FILLER_0_29_169
*1824 FILLER_0_29_177
*1825 FILLER_0_29_191
*1826 FILLER_0_29_199
*1827 FILLER_0_29_212
*1828 FILLER_0_29_218
*1829 FILLER_0_29_222
*1830 FILLER_0_29_225
*1831 FILLER_0_29_23
*1832 FILLER_0_29_231
*1833 FILLER_0_29_281
*1834 FILLER_0_29_291
*1835 FILLER_0_29_31
*1836 FILLER_0_29_39
*1837 FILLER_0_29_45
*1838 FILLER_0_29_53
*1839 FILLER_0_29_67
*1840 FILLER_0_29_73
*1841 FILLER_0_29_80
*1842 FILLER_0_29_88
*1843 FILLER_0_29_96
*1844 FILLER_0_2_101
*1845 FILLER_0_2_109
*1846 FILLER_0_2_115
*1847 FILLER_0_2_128
*1848 FILLER_0_2_136
*1849 FILLER_0_2_141
*1850 FILLER_0_2_149
*1851 FILLER_0_2_157
*1852 FILLER_0_2_174
*1853 FILLER_0_2_180
*1854 FILLER_0_2_188
*1855 FILLER_0_2_197
*1856 FILLER_0_2_209
*1857 FILLER_0_2_217
*1858 FILLER_0_2_23
*1859 FILLER_0_2_233
*1860 FILLER_0_2_241
*1861 FILLER_0_2_249
*1862 FILLER_0_2_253
*1863 FILLER_0_2_261
*1864 FILLER_0_2_269
*1865 FILLER_0_2_27
*1866 FILLER_0_2_290
*1867 FILLER_0_2_298
*1868 FILLER_0_2_37
*1869 FILLER_0_2_45
*1870 FILLER_0_2_53
*1871 FILLER_0_2_61
*1872 FILLER_0_2_69
*1873 FILLER_0_2_77
*1874 FILLER_0_2_83
*1875 FILLER_0_2_85
*1876 FILLER_0_2_93
*1877 FILLER_0_30_121
*1878 FILLER_0_30_129
*1879 FILLER_0_30_137
*1880 FILLER_0_30_145
*1881 FILLER_0_30_15
*1882 FILLER_0_30_153
*1883 FILLER_0_30_157
*1884 FILLER_0_30_164
*1885 FILLER_0_30_174
*1886 FILLER_0_30_182
*1887 FILLER_0_30_190
*1888 FILLER_0_30_197
*1889 FILLER_0_30_205
*1890 FILLER_0_30_212
*1891 FILLER_0_30_228
*1892 FILLER_0_30_23
*1893 FILLER_0_30_236
*1894 FILLER_0_30_246
*1895 FILLER_0_30_253
*1896 FILLER_0_30_267
*1897 FILLER_0_30_27
*1898 FILLER_0_30_278
*1899 FILLER_0_30_286
*1900 FILLER_0_30_29
*1901 FILLER_0_30_296
*1902 FILLER_0_30_306
*1903 FILLER_0_30_42
*1904 FILLER_0_30_79
*1905 FILLER_0_30_83
*1906 FILLER_0_30_9
*1907 FILLER_0_30_98
*1908 FILLER_0_31_104
*1909 FILLER_0_31_113
*1910 FILLER_0_31_122
*1911 FILLER_0_31_130
*1912 FILLER_0_31_145
*1913 FILLER_0_31_149
*1914 FILLER_0_31_179
*1915 FILLER_0_31_198
*1916 FILLER_0_31_207
*1917 FILLER_0_31_215
*1918 FILLER_0_31_234