*SPEF "ieee 1481-1999"
*DESIGN "inverse_clarke"
*DATE "11:11:11 Fri 11 11, 1111"
*VENDOR "OpenRCX"
*PROGRAM "Parallel Extraction"
*VERSION "1.0"
*DESIGN_FLOW "NAME_SCOPE LOCAL" "PIN_CAP NONE"
*DIVIDER /
*DELIMITER :
*BUS_DELIMITER []
*T_UNIT 1 NS
*C_UNIT 1 PF
*R_UNIT 1 OHM
*L_UNIT 1 HENRY

*NAME_MAP
*3 a[0]
*4 a[10]
*5 a[11]
*6 a[12]
*7 a[13]
*8 a[14]
*9 a[15]
*10 a[16]
*11 a[17]
*12 a[18]
*13 a[1]
*14 a[2]
*15 a[3]
*16 a[4]
*17 a[5]
*18 a[6]
*19 a[7]
*20 a[8]
*21 a[9]
*22 alpha[0]
*23 alpha[10]
*24 alpha[11]
*25 alpha[12]
*26 alpha[13]
*27 alpha[14]
*28 alpha[15]
*29 alpha[16]
*30 alpha[17]
*31 alpha[18]
*32 alpha[1]
*33 alpha[2]
*34 alpha[3]
*35 alpha[4]
*36 alpha[5]
*37 alpha[6]
*38 alpha[7]
*39 alpha[8]
*40 alpha[9]
*41 b[0]
*42 b[10]
*43 b[11]
*44 b[12]
*45 b[13]
*46 b[14]
*47 b[15]
*48 b[16]
*49 b[17]
*50 b[18]
*51 b[1]
*52 b[2]
*53 b[3]
*54 b[4]
*55 b[5]
*56 b[6]
*57 b[7]
*58 b[8]
*59 b[9]
*60 beta[0]
*61 beta[10]
*62 beta[11]
*63 beta[12]
*64 beta[13]
*65 beta[14]
*66 beta[15]
*67 beta[16]
*68 beta[17]
*69 beta[18]
*70 beta[1]
*71 beta[2]
*72 beta[3]
*73 beta[4]
*74 beta[5]
*75 beta[6]
*76 beta[7]
*77 beta[8]
*78 beta[9]
*79 c[0]
*80 c[10]
*81 c[11]
*82 c[12]
*83 c[13]
*84 c[14]
*85 c[15]
*86 c[16]
*87 c[17]
*88 c[18]
*89 c[1]
*90 c[2]
*91 c[3]
*92 c[4]
*93 c[5]
*94 c[6]
*95 c[7]
*96 c[8]
*97 c[9]
*98 clk
*99 done
*100 rstb
*101 start
*102 _0000_
*103 _0001_
*104 _0002_
*105 _0003_
*106 _0004_
*107 _0005_
*108 _0006_
*109 _0007_
*110 _0008_
*111 _0009_
*112 _0010_
*113 _0011_
*114 _0012_
*115 _0013_
*116 _0014_
*117 _0015_
*118 _0016_
*119 _0017_
*120 _0018_
*121 _0019_
*122 _0020_
*123 _0021_
*124 _0022_
*125 _0023_
*126 _0024_
*127 _0025_
*128 _0026_
*129 _0027_
*130 _0028_
*131 _0029_
*132 _0030_
*133 _0031_
*134 _0032_
*135 _0033_
*136 _0034_
*137 _0035_
*138 _0036_
*139 _0037_
*140 _0038_
*141 _0039_
*142 _0040_
*143 _0041_
*144 _0042_
*145 _0043_
*146 _0044_
*147 _0045_
*148 _0046_
*149 _0047_
*150 _0048_
*151 _0049_
*152 _0050_
*153 _0051_
*154 _0052_
*155 _0053_
*156 _0054_
*157 _0055_
*158 _0056_
*159 _0057_
*160 _0058_
*161 _0059_
*162 _0060_
*163 _0061_
*164 _0062_
*165 _0063_
*166 _0064_
*167 _0065_
*168 _0066_
*169 _0067_
*170 _0068_
*171 _0069_
*172 _0070_
*173 _0071_
*174 _0072_
*175 _0073_
*176 _0074_
*177 _0075_
*178 _0076_
*179 _0077_
*180 _0078_
*181 _0079_
*182 _0080_
*183 _0081_
*184 _0082_
*185 _0083_
*186 _0084_
*187 _0085_
*188 _0086_
*189 _0087_
*190 _0088_
*191 _0089_
*192 _0090_
*193 _0091_
*194 _0092_
*195 _0093_
*196 _0094_
*197 _0095_
*198 _0096_
*199 _0097_
*200 _0098_
*201 _0099_
*202 _0100_
*203 _0101_
*204 _0102_
*205 _0103_
*206 _0104_
*207 _0105_
*208 _0106_
*209 _0107_
*210 _0108_
*211 _0109_
*212 _0110_
*213 _0111_
*214 _0112_
*215 _0113_
*216 _0114_
*217 _0115_
*218 _0116_
*219 _0117_
*220 _0118_
*221 _0119_
*222 _0120_
*223 _0121_
*224 _0122_
*225 _0123_
*226 _0124_
*227 _0125_
*228 _0126_
*229 _0127_
*230 _0128_
*231 _0129_
*232 _0130_
*233 _0131_
*234 _0132_
*235 _0133_
*236 _0134_
*237 _0135_
*238 _0136_
*239 _0137_
*240 _0138_
*241 _0139_
*242 _0140_
*243 _0141_
*244 _0142_
*245 _0143_
*246 _0144_
*247 _0145_
*248 _0146_
*249 _0147_
*250 _0148_
*251 _0149_
*252 _0150_
*253 _0151_
*254 _0152_
*255 _0153_
*256 _0154_
*257 _0155_
*258 _0156_
*259 _0157_
*260 _0158_
*261 _0159_
*262 _0160_
*263 _0161_
*264 _0162_
*265 _0163_
*266 _0164_
*267 _0165_
*268 _0166_
*269 _0167_
*270 _0168_
*271 _0169_
*272 _0170_
*273 _0171_
*274 _0172_
*275 _0173_
*276 _0174_
*277 _0175_
*278 _0176_
*279 _0177_
*280 _0178_
*281 _0179_
*282 _0180_
*283 _0181_
*284 _0182_
*285 _0183_
*286 _0184_
*287 _0185_
*288 _0186_
*289 _0187_
*290 _0188_
*291 _0189_
*292 _0190_
*293 _0191_
*294 _0192_
*295 _0193_
*296 _0194_
*297 _0195_
*298 _0196_
*299 _0197_
*300 _0198_
*301 _0199_
*302 _0200_
*303 _0201_
*304 _0202_
*305 _0203_
*306 _0204_
*307 _0205_
*308 _0206_
*309 _0207_
*310 _0208_
*311 _0209_
*312 _0210_
*313 _0211_
*314 _0212_
*315 _0213_
*316 _0214_
*317 _0215_
*318 _0216_
*319 _0217_
*320 _0218_
*321 _0219_
*322 _0220_
*323 _0221_
*324 _0222_
*325 _0223_
*326 _0224_
*327 _0225_
*328 _0226_
*329 _0227_
*330 _0228_
*331 _0229_
*332 _0230_
*333 _0231_
*334 _0232_
*335 _0233_
*336 _0234_
*337 _0235_
*338 _0236_
*339 _0237_
*340 _0238_
*341 _0239_
*342 _0240_
*343 _0241_
*344 _0242_
*345 _0243_
*346 _0244_
*347 _0245_
*348 _0246_
*349 _0247_
*350 _0248_
*351 _0249_
*352 _0250_
*353 _0251_
*354 _0252_
*355 _0253_
*356 _0254_
*357 _0255_
*358 _0256_
*359 _0257_
*360 _0258_
*361 _0259_
*362 _0260_
*363 _0261_
*364 _0262_
*365 _0263_
*366 _0264_
*367 _0265_
*368 _0266_
*369 _0267_
*370 _0268_
*371 _0269_
*372 _0270_
*373 _0271_
*374 _0272_
*375 _0273_
*376 _0274_
*377 _0275_
*378 _0276_
*379 _0277_
*380 _0278_
*381 _0279_
*382 _0280_
*383 _0281_
*384 _0282_
*385 _0283_
*386 _0284_
*387 _0285_
*388 _0286_
*389 _0287_
*390 _0288_
*391 _0289_
*392 _0290_
*393 _0291_
*394 _0292_
*395 _0293_
*396 _0294_
*397 _0295_
*398 _0296_
*399 _0297_
*400 _0298_
*401 _0299_
*402 _0300_
*403 _0301_
*404 _0302_
*405 _0303_
*406 _0304_
*407 _0305_
*408 _0306_
*409 _0307_
*410 _0308_
*411 _0309_
*412 _0310_
*413 _0311_
*414 _0312_
*415 _0313_
*416 _0314_
*417 _0315_
*418 _0316_
*419 _0317_
*420 _0318_
*421 _0319_
*422 _0320_
*423 _0321_
*424 _0322_
*425 _0323_
*426 _0324_
*427 _0325_
*428 _0326_
*429 _0327_
*430 _0328_
*431 _0329_
*432 _0330_
*433 _0331_
*434 _0332_
*435 _0333_
*436 _0334_
*437 _0335_
*438 _0336_
*439 _0337_
*440 _0338_
*441 _0339_
*442 _0340_
*443 _0341_
*444 _0342_
*445 _0343_
*446 _0344_
*447 _0345_
*448 _0346_
*449 _0347_
*450 _0348_
*451 _0349_
*452 _0350_
*453 _0351_
*454 _0352_
*455 _0353_
*456 _0354_
*457 _0355_
*458 _0356_
*459 _0357_
*460 _0358_
*461 _0359_
*462 _0360_
*463 _0361_
*464 _0362_
*465 _0363_
*466 _0364_
*467 _0365_
*468 _0366_
*469 _0367_
*470 _0368_
*471 _0369_
*472 _0370_
*473 _0371_
*474 _0372_
*475 _0373_
*476 _0374_
*477 _0375_
*478 _0376_
*479 _0377_
*480 _0378_
*481 _0379_
*482 _0380_
*483 _0381_
*484 _0382_
*485 _0383_
*486 _0384_
*487 _0385_
*488 _0386_
*489 _0387_
*490 _0388_
*491 _0389_
*492 _0390_
*493 _0391_
*494 _0392_
*495 _0393_
*496 _0394_
*497 _0395_
*498 _0396_
*499 _0397_
*500 _0398_
*501 _0399_
*502 _0400_
*503 _0401_
*504 _0402_
*505 _0403_
*506 _0404_
*507 _0405_
*508 _0406_
*509 _0407_
*510 _0408_
*511 _0409_
*512 _0410_
*513 _0411_
*514 _0412_
*515 _0413_
*516 _0414_
*517 _0415_
*518 _0416_
*519 _0417_
*520 _0418_
*521 _0419_
*522 _0420_
*523 _0421_
*524 _0422_
*525 _0423_
*526 _0424_
*527 _0425_
*528 _0426_
*529 _0427_
*530 _0428_
*531 _0429_
*532 _0430_
*533 _0431_
*534 _0432_
*535 _0433_
*536 _0434_
*537 _0435_
*538 _0436_
*539 _0437_
*540 _0438_
*541 _0439_
*542 _0440_
*543 _0441_
*544 _0442_
*545 _0443_
*546 _0444_
*547 _0445_
*548 _0446_
*549 _0447_
*550 _0448_
*551 _0449_
*552 _0450_
*553 _0451_
*554 _0452_
*555 _0453_
*556 _0454_
*557 _0455_
*558 _0456_
*559 _0457_
*560 _0458_
*561 _0459_
*562 _0460_
*563 _0461_
*564 _0462_
*565 _0463_
*566 _0464_
*567 _0465_
*568 _0466_
*569 _0467_
*570 _0468_
*571 _0469_
*572 _0470_
*573 _0471_
*574 _0472_
*575 _0473_
*576 _0474_
*577 _0475_
*578 _0476_
*579 _0477_
*580 _0478_
*581 _0479_
*582 _0480_
*583 _0481_
*584 _0482_
*585 _0483_
*586 _0484_
*587 _0485_
*588 _0486_
*589 _0487_
*590 _0488_
*591 _0489_
*592 _0490_
*593 _0491_
*594 _0492_
*595 _0493_
*596 _0494_
*597 _0495_
*598 _0496_
*599 _0497_
*600 _0498_
*601 _0499_
*602 _0500_
*603 _0501_
*604 _0502_
*605 _0503_
*606 _0504_
*607 _0505_
*608 _0506_
*609 _0507_
*610 _0508_
*611 _0509_
*612 _0510_
*613 _0511_
*614 _0512_
*615 _0513_
*616 _0514_
*617 _0515_
*618 _0516_
*619 _0517_
*620 _0518_
*621 _0519_
*622 _0520_
*623 _0521_
*624 _0522_
*625 _0523_
*626 _0524_
*627 _0525_
*628 _0526_
*629 _0527_
*630 _0528_
*631 _0529_
*632 _0530_
*633 _0531_
*634 _0532_
*635 _0533_
*636 _0534_
*637 _0535_
*638 _0536_
*639 _0537_
*640 _0538_
*641 _0539_
*642 _0540_
*643 _0541_
*644 _0542_
*645 _0543_
*646 _0544_
*647 _0545_
*648 _0546_
*649 _0547_
*650 _0548_
*651 _0549_
*652 _0550_
*653 _0551_
*654 _0552_
*655 _0553_
*656 _0554_
*657 _0555_
*658 _0556_
*659 _0557_
*660 _0558_
*661 _0559_
*662 _0560_
*663 _0561_
*664 _0562_
*665 _0563_
*666 _0564_
*667 _0565_
*668 _0566_
*669 _0567_
*670 _0568_
*671 _0569_
*672 _0570_
*673 _0571_
*674 _0572_
*675 _0573_
*676 _0574_
*677 _0575_
*678 _0576_
*679 _0577_
*680 _0578_
*681 _0579_
*682 _0580_
*683 _0581_
*684 _0582_
*685 _0583_
*686 _0584_
*687 _0585_
*688 _0586_
*689 _0587_
*690 _0588_
*691 _0589_
*692 _0590_
*693 _0591_
*694 _0592_
*695 _0593_
*696 _0594_
*697 _0595_
*698 _0596_
*699 _0597_
*700 _0598_
*701 _0599_
*702 _0600_
*703 _0601_
*704 _0602_
*705 _0603_
*706 _0604_
*707 _0605_
*708 _0606_
*709 _0607_
*710 _0608_
*711 _0609_
*712 _0610_
*713 _0611_
*714 _0612_
*715 _0613_
*716 _0614_
*717 _0615_
*718 _0616_
*719 _0617_
*720 _0618_
*721 _0619_
*722 _0620_
*723 _0621_
*724 _0622_
*725 _0623_
*726 _0624_
*727 _0625_
*728 _0626_
*729 _0627_
*730 _0628_
*731 _0629_
*732 _0630_
*733 _0631_
*734 _0632_
*735 _0633_
*736 _0634_
*737 _0635_
*738 _0636_
*739 _0637_
*740 _0638_
*741 _0639_
*742 _0640_
*743 _0641_
*744 _0642_
*745 _0643_
*746 _0644_
*747 _0645_
*748 _0646_
*749 _0647_
*750 _0648_
*751 _0649_
*752 _0650_
*753 _0651_
*754 _0652_
*755 _0653_
*756 _0654_
*757 _0655_
*758 _0656_
*759 _0657_
*760 _0658_
*761 _0659_
*762 _0660_
*763 _0661_
*764 _0662_
*765 _0663_
*766 _0664_
*767 _0665_
*768 _0666_
*769 _0667_
*770 _0668_
*771 _0669_
*772 _0670_
*773 _0671_
*774 _0672_
*775 _0673_
*776 _0674_
*777 _0675_
*778 _0676_
*779 _0677_
*780 _0678_
*781 _0679_
*782 _0680_
*783 _0681_
*784 _0682_
*785 _0683_
*786 _0684_
*787 _0685_
*788 _0686_
*789 _0687_
*790 _0688_
*791 _0689_
*792 _0690_
*793 _0691_
*794 _0692_
*795 _0693_
*796 _0694_
*797 _0695_
*798 _0696_
*799 _0697_
*800 _0698_
*801 _0699_
*802 _0700_
*803 _0701_
*804 _0702_
*805 _0703_
*806 _0704_
*807 _0705_
*808 _0706_
*809 _0707_
*810 _0708_
*811 _0709_
*812 _0710_
*813 _0711_
*814 _0712_
*815 _0713_
*816 _0714_
*817 _0715_
*818 _0716_
*819 _0717_
*820 _0718_
*821 _0719_
*822 _0720_
*823 _0721_
*824 _0722_
*825 _0723_
*826 _0724_
*827 _0725_
*828 _0726_
*829 _0727_
*830 _0728_
*831 _0729_
*832 _0730_
*833 _0731_
*834 _0732_
*835 _0733_
*836 _0734_
*837 _0735_
*838 _0736_
*839 _0737_
*840 _0738_
*841 _0739_
*842 _0740_
*843 _0741_
*844 _0742_
*845 _0743_
*846 _0744_
*847 _0745_
*848 _0746_
*849 _0747_
*850 _0748_
*851 _0749_
*852 _0750_
*853 _0751_
*854 _0752_
*855 _0753_
*856 _0754_
*857 _0755_
*858 _0756_
*859 _0757_
*860 _0758_
*861 _0759_
*862 _0760_
*863 _0761_
*864 _0762_
*865 _0763_
*866 _0764_
*867 _0765_
*868 _0766_
*869 _0767_
*870 _0768_
*871 _0769_
*872 _0770_
*873 _0771_
*874 _0772_
*875 _0773_
*876 _0774_
*877 _0775_
*878 _0776_
*879 _0777_
*880 _0778_
*881 _0779_
*882 _0780_
*883 _0781_
*884 _0782_
*885 _0783_
*886 _0784_
*887 _0785_
*888 _0786_
*889 _0787_
*890 _0788_
*891 _0789_
*892 _0790_
*893 _0791_
*894 _0792_
*895 _0793_
*896 _0794_
*897 _0795_
*898 _0796_
*899 _0797_
*900 _0798_
*901 _0799_
*902 _0800_
*903 _0801_
*904 _0802_
*905 _0803_
*906 _0804_
*907 _0805_
*908 _0806_
*909 _0807_
*910 _0808_
*911 _0809_
*912 _0810_
*913 _0811_
*914 _0812_
*915 _0813_
*916 _0814_
*917 _0815_
*918 _0816_
*919 _0817_
*920 _0818_
*921 _0819_
*922 _0820_
*923 _0821_
*924 _0822_
*925 _0823_
*926 _0824_
*927 _0825_
*928 _0826_
*929 _0827_
*930 _0828_
*931 _0829_
*932 _0830_
*933 _0831_
*934 _0832_
*935 _0833_
*936 _0834_
*937 _0835_
*938 _0836_
*939 _0837_
*940 _0838_
*941 _0839_
*942 _0840_
*943 _0841_
*944 _0842_
*945 _0843_
*946 _0844_
*947 _0845_
*948 _0846_
*949 _0847_
*950 _0848_
*951 _0849_
*952 _0850_
*953 _0851_
*954 _0852_
*955 _0853_
*956 _0854_
*957 _0855_
*958 _0856_
*959 _0857_
*960 _0858_
*961 _0859_
*962 _0860_
*963 _0861_
*964 _0862_
*965 _0863_
*966 _0864_
*967 _0865_
*968 _0866_
*969 _0867_
*970 _0868_
*971 _0869_
*972 _0870_
*973 _0871_
*974 _0872_
*975 _0873_
*976 _0874_
*977 _0875_
*978 _0876_
*979 _0877_
*980 _0878_
*981 _0879_
*982 _0880_
*983 _0881_
*984 _0882_
*985 _0883_
*986 _0884_
*987 _0885_
*988 _0886_
*989 _0887_
*990 _0888_
*991 _0889_
*992 _0890_
*993 _0891_
*994 _0892_
*995 _0893_
*996 _0894_
*997 _0895_
*998 _0896_
*999 _0897_
*1000 _0898_
*1001 _0899_
*1002 _0900_
*1003 _0901_
*1004 _0902_
*1005 _0903_
*1006 _0904_
*1007 _0905_
*1008 _0906_
*1009 _0907_
*1010 _0908_
*1011 _0909_
*1012 _0910_
*1013 _0911_
*1014 _0912_
*1015 _0913_
*1016 _0914_
*1017 _0915_
*1018 _0916_
*1019 _0917_
*1020 _0918_
*1021 _0919_
*1022 _0920_
*1023 _0921_
*1024 _0922_
*1025 _0923_
*1026 _0924_
*1027 _0925_
*1028 _0926_
*1029 _0927_
*1030 _0928_
*1031 _0929_
*1032 _0930_
*1033 _0931_
*1034 _0932_
*1035 _0933_
*1036 _0934_
*1037 _0935_
*1038 _0936_
*1039 _0937_
*1040 _0938_
*1041 _0939_
*1042 _0940_
*1043 _0941_
*1044 _0942_
*1045 _0943_
*1046 _0944_
*1047 _0945_
*1048 _0946_
*1049 _0947_
*1050 _0948_
*1051 _0949_
*1052 _0950_
*1053 _0951_
*1054 _0952_
*1055 _0953_
*1056 _0954_
*1057 _0955_
*1058 _0956_
*1059 _0957_
*1060 _0958_
*1061 _0959_
*1062 _0960_
*1063 _0961_
*1064 _0962_
*1065 _0963_
*1066 _0964_
*1067 _0965_
*1068 _0966_
*1069 _0967_
*1070 _0968_
*1071 _0969_
*1072 _0970_
*1073 _0971_
*1074 _0972_
*1075 _0973_
*1076 _0974_
*1077 _0975_
*1078 _0976_
*1079 _0977_
*1080 _0978_
*1081 _0979_
*1082 _0980_
*1083 _0981_
*1084 _0982_
*1085 _0983_
*1086 _0984_
*1087 _0985_
*1088 _0986_
*1089 _0987_
*1090 _0988_
*1091 _0989_
*1092 _0990_
*1093 _0991_
*1094 _0992_
*1095 _0993_
*1096 _0994_
*1097 _0995_
*1098 _0996_
*1099 _0997_
*1100 _0998_
*1101 _0999_
*1102 _1000_
*1103 _1001_
*1104 _1002_
*1105 _1003_
*1106 _1004_
*1107 _1005_
*1108 _1006_
*1109 _1007_
*1110 _1008_
*1111 _1009_
*1112 _1010_
*1113 _1011_
*1114 _1012_
*1115 _1013_
*1116 _1014_
*1117 _1015_
*1118 _1016_
*1119 _1017_
*1120 _1018_
*1121 _1019_
*1122 _1020_
*1123 _1021_
*1124 _1022_
*1125 _1023_
*1126 _1024_
*1127 _1025_
*1128 _1026_
*1129 _1027_
*1130 _1028_
*1131 _1029_
*1132 _1030_
*1133 _1031_
*1134 _1032_
*1135 _1033_
*1136 _1034_
*1137 _1035_
*1138 _1036_
*1139 _1037_
*1140 _1038_
*1141 _1039_
*1142 _1040_
*1143 _1041_
*1144 _1042_
*1145 _1043_
*1146 _1044_
*1147 _1045_
*1148 _1046_
*1149 _1047_
*1150 _1048_
*1151 _1049_
*1152 _1050_
*1153 _1051_
*1154 _1052_
*1155 _1053_
*1156 _1054_
*1157 _1055_
*1158 _1056_
*1159 _1057_
*1160 _1058_
*1161 _1059_
*1162 _1060_
*1163 _1061_
*1164 _1062_
*1165 _1063_
*1166 _1064_
*1167 _1065_
*1168 _1066_
*1169 _1067_
*1170 _1068_
*1171 _1069_
*1172 _1070_
*1173 _1071_
*1174 _1072_
*1175 _1073_
*1176 _1074_
*1177 _1075_
*1178 _1076_
*1179 _1077_
*1180 _1078_
*1181 _1079_
*1182 _1080_
*1183 _1081_
*1184 _1082_
*1185 _1083_
*1186 _1084_
*1187 _1085_
*1188 _1086_
*1189 _1087_
*1190 _1088_
*1191 _1089_
*1192 _1090_
*1193 _1091_
*1194 _1092_
*1195 _1093_
*1196 _1094_
*1197 _1095_
*1198 _1096_
*1199 _1097_
*1200 _1098_
*1201 _1099_
*1202 _1100_
*1203 _1101_
*1204 _1102_
*1205 _1103_
*1206 _1104_
*1207 _1105_
*1208 _1106_
*1209 _1107_
*1210 _1108_
*1211 _1109_
*1212 _1110_
*1213 _1111_
*1214 _1112_
*1215 _1113_
*1216 _1114_
*1217 _1115_
*1218 _1116_
*1219 _1117_
*1220 _1118_
*1221 _1119_
*1222 _1120_
*1223 _1121_
*1224 _1122_
*1225 _1123_
*1226 _1124_
*1227 _1125_
*1228 _1126_
*1229 _1127_
*1230 _1128_
*1231 _1129_
*1232 _1130_
*1233 _1131_
*1234 _1132_
*1235 _1133_
*1236 _1134_
*1237 _1135_
*1238 _1136_
*1239 _1137_
*1240 _1138_
*1241 _1139_
*1242 _1140_
*1243 _1141_
*1244 _1142_
*1245 _1143_
*1246 _1144_
*1247 _1145_
*1248 _1146_
*1249 _1147_
*1250 _1148_
*1251 _1149_
*1252 _1150_
*1253 _1151_
*1254 _1152_
*1255 _1153_
*1256 _1154_
*1257 _1155_
*1258 _1156_
*1259 _1157_
*1260 _1158_
*1261 _1159_
*1262 _1160_
*1263 _1161_
*1264 _1162_
*1265 _1163_
*1266 _1164_
*1267 _1165_
*1268 _1166_
*1269 _1167_
*1270 _1168_
*1271 _1169_
*1272 _1170_
*1273 _1171_
*1274 _1172_
*1275 _1173_
*1276 _1174_
*1277 _1175_
*1278 _1176_
*1279 _1177_
*1280 _1178_
*1281 _1179_
*1282 _1180_
*1283 _1181_
*1284 _1182_
*1285 _1183_
*1286 _1184_
*1287 _1185_
*1288 _1186_
*1289 _1187_
*1290 _1188_
*1291 _1189_
*1292 _1190_
*1293 _1191_
*1294 _1192_
*1295 _1193_
*1296 _1194_
*1297 _1195_
*1298 _1196_
*1299 _1197_
*1300 _1198_
*1301 _1199_
*1302 _1200_
*1303 _1201_
*1304 _1202_
*1305 _1203_
*1306 _1204_
*1307 _1205_
*1308 _1206_
*1309 _1207_
*1310 _1208_
*1311 _1209_
*1312 _1210_
*1313 _1211_
*1314 clknet_0_clk
*1315 clknet_3_0__leaf_clk
*1316 clknet_3_1__leaf_clk
*1317 clknet_3_2__leaf_clk
*1318 clknet_3_3__leaf_clk
*1319 clknet_3_4__leaf_clk
*1320 clknet_3_5__leaf_clk
*1321 clknet_3_6__leaf_clk
*1322 clknet_3_7__leaf_clk
*1323 net1
*1324 net10
*1325 net100
*1326 net101
*1327 net102
*1328 net103
*1329 net104
*1330 net105
*1331 net106
*1332 net107
*1333 net108
*1334 net109
*1335 net11
*1336 net110
*1337 net111
*1338 net112
*1339 net113
*1340 net114
*1341 net115
*1342 net116
*1343 net117
*1344 net118
*1345 net119
*1346 net12
*1347 net120
*1348 net121
*1349 net122
*1350 net123
*1351 net124
*1352 net125
*1353 net126
*1354 net127
*1355 net128
*1356 net129
*1357 net13
*1358 net130
*1359 net131
*1360 net132
*1361 net133
*1362 net134
*1363 net135
*1364 net136
*1365 net137
*1366 net138
*1367 net139
*1368 net14
*1369 net140
*1370 net141
*1371 net142
*1372 net143
*1373 net144
*1374 net145
*1375 net146
*1376 net147
*1377 net148
*1378 net149
*1379 net15
*1380 net150
*1381 net151
*1382 net152
*1383 net153
*1384 net154
*1385 net155
*1386 net156
*1387 net157
*1388 net158
*1389 net159
*1390 net16
*1391 net160
*1392 net161
*1393 net162
*1394 net163
*1395 net164
*1396 net165
*1397 net166
*1398 net167
*1399 net168
*1400 net169
*1401 net17
*1402 net170
*1403 net171
*1404 net172
*1405 net173
*1406 net174
*1407 net175
*1408 net176
*1409 net177
*1410 net178
*1411 net179
*1412 net18
*1413 net180
*1414 net181
*1415 net182
*1416 net183
*1417 net184
*1418 net185
*1419 net186
*1420 net187
*1421 net188
*1422 net189
*1423 net19
*1424 net190
*1425 net191
*1426 net192
*1427 net193
*1428 net194
*1429 net195
*1430 net196
*1431 net197
*1432 net198
*1433 net199
*1434 net2
*1435 net20
*1436 net200
*1437 net201
*1438 net202
*1439 net203
*1440 net204
*1441 net205
*1442 net206
*1443 net207
*1444 net208
*1445 net209
*1446 net21
*1447 net210
*1448 net211
*1449 net212
*1450 net213
*1451 net214
*1452 net215
*1453 net216
*1454 net217
*1455 net218
*1456 net219
*1457 net22
*1458 net220
*1459 net221
*1460 net222
*1461 net223
*1462 net224
*1463 net225
*1464 net226
*1465 net23
*1466 net24
*1467 net25
*1468 net26
*1469 net27
*1470 net28
*1471 net29
*1472 net3
*1473 net30
*1474 net31
*1475 net32
*1476 net33
*1477 net34
*1478 net35
*1479 net36
*1480 net37
*1481 net38
*1482 net39
*1483 net4
*1484 net40
*1485 net41
*1486 net42
*1487 net43
*1488 net44
*1489 net45
*1490 net46
*1491 net47
*1492 net48
*1493 net49
*1494 net5
*1495 net50
*1496 net51
*1497 net52
*1498 net53
*1499 net54
*1500 net55
*1501 net56
*1502 net57
*1503 net58
*1504 net59
*1505 net6
*1506 net60
*1507 net61
*1508 net62
*1509 net63
*1510 net64
*1511 net65
*1512 net66
*1513 net67
*1514 net68
*1515 net69
*1516 net7
*1517 net70
*1518 net71
*1519 net72
*1520 net73
*1521 net74
*1522 net75
*1523 net76
*1524 net77
*1525 net78
*1526 net79
*1527 net8
*1528 net80
*1529 net81
*1530 net82
*1531 net83
*1532 net84
*1533 net85
*1534 net86
*1535 net87
*1536 net88
*1537 net89
*1538 net9
*1539 net90
*1540 net91
*1541 net92
*1542 net93
*1543 net94
*1544 net95
*1545 net96
*1546 net97
*1547 net98
*1548 net99
*1549 ANTENNA_1
*1550 ANTENNA_2
*1551 FILLER_0_0_104
*1552 FILLER_0_0_11
*1553 FILLER_0_0_111
*1554 FILLER_0_0_113
*1555 FILLER_0_0_121
*1556 FILLER_0_0_125
*1557 FILLER_0_0_136
*1558 FILLER_0_0_141
*1559 FILLER_0_0_149
*1560 FILLER_0_0_161
*1561 FILLER_0_0_167
*1562 FILLER_0_0_169
*1563 FILLER_0_0_177
*1564 FILLER_0_0_185
*1565 FILLER_0_0_19
*1566 FILLER_0_0_193
*1567 FILLER_0_0_197
*1568 FILLER_0_0_205
*1569 FILLER_0_0_213
*1570 FILLER_0_0_221
*1571 FILLER_0_0_225
*1572 FILLER_0_0_233
*1573 FILLER_0_0_241
*1574 FILLER_0_0_249
*1575 FILLER_0_0_253
*1576 FILLER_0_0_261
*1577 FILLER_0_0_269
*1578 FILLER_0_0_27
*1579 FILLER_0_0_277
*1580 FILLER_0_0_281
*1581 FILLER_0_0_289
*1582 FILLER_0_0_29
*1583 FILLER_0_0_297
*1584 FILLER_0_0_3
*1585 FILLER_0_0_305
*1586 FILLER_0_0_309
*1587 FILLER_0_0_317
*1588 FILLER_0_0_325
*1589 FILLER_0_0_333
*1590 FILLER_0_0_337
*1591 FILLER_0_0_345
*1592 FILLER_0_0_353
*1593 FILLER_0_0_37
*1594 FILLER_0_0_45
*1595 FILLER_0_0_53
*1596 FILLER_0_0_57
*1597 FILLER_0_0_65
*1598 FILLER_0_0_73
*1599 FILLER_0_0_79
*1600 FILLER_0_0_83
*1601 FILLER_0_0_85
*1602 FILLER_0_0_93
*1603 FILLER_0_10_11
*1604 FILLER_0_10_119
*1605 FILLER_0_10_127
*1606 FILLER_0_10_135
*1607 FILLER_0_10_139
*1608 FILLER_0_10_141
*1609 FILLER_0_10_159
*1610 FILLER_0_10_167
*1611 FILLER_0_10_175
*1612 FILLER_0_10_19
*1613 FILLER_0_10_195
*1614 FILLER_0_10_205
*1615 FILLER_0_10_213
*1616 FILLER_0_10_253
*1617 FILLER_0_10_258
*1618 FILLER_0_10_262
*1619 FILLER_0_10_27
*1620 FILLER_0_10_276
*1621 FILLER_0_10_283
*1622 FILLER_0_10_29
*1623 FILLER_0_10_3
*1624 FILLER_0_10_305
*1625 FILLER_0_10_312
*1626 FILLER_0_10_320
*1627 FILLER_0_10_328
*1628 FILLER_0_10_342
*1629 FILLER_0_10_352
*1630 FILLER_0_10_37
*1631 FILLER_0_10_45
*1632 FILLER_0_10_53
*1633 FILLER_0_10_61
*1634 FILLER_0_10_73
*1635 FILLER_0_10_98
*1636 FILLER_0_11_108
*1637 FILLER_0_11_11
*1638 FILLER_0_11_118
*1639 FILLER_0_11_122
*1640 FILLER_0_11_136
*1641 FILLER_0_11_151
*1642 FILLER_0_11_157
*1643 FILLER_0_11_185
*1644 FILLER_0_11_19
*1645 FILLER_0_11_219
*1646 FILLER_0_11_268
*1647 FILLER_0_11_27
*1648 FILLER_0_11_278
*1649 FILLER_0_11_3
*1650 FILLER_0_11_302
*1651 FILLER_0_11_306
*1652 FILLER_0_11_349
*1653 FILLER_0_11_35
*1654 FILLER_0_11_43
*1655 FILLER_0_11_51
*1656 FILLER_0_11_55
*1657 FILLER_0_11_57
*1658 FILLER_0_11_73
*1659 FILLER_0_11_90
*1660 FILLER_0_11_94
*1661 FILLER_0_12_100
*1662 FILLER_0_12_11
*1663 FILLER_0_12_110
*1664 FILLER_0_12_118
*1665 FILLER_0_12_141
*1666 FILLER_0_12_184
*1667 FILLER_0_12_19
*1668 FILLER_0_12_191
*1669 FILLER_0_12_195
*1670 FILLER_0_12_197
*1671 FILLER_0_12_203
*1672 FILLER_0_12_221
*1673 FILLER_0_12_251
*1674 FILLER_0_12_253
*1675 FILLER_0_12_257
*1676 FILLER_0_12_264
*1677 FILLER_0_12_27
*1678 FILLER_0_12_270
*1679 FILLER_0_12_278
*1680 FILLER_0_12_282
*1681 FILLER_0_12_29
*1682 FILLER_0_12_291
*1683 FILLER_0_12_299
*1684 FILLER_0_12_3
*1685 FILLER_0_12_307
*1686 FILLER_0_12_309
*1687 FILLER_0_12_324
*1688 FILLER_0_12_332
*1689 FILLER_0_12_338
*1690 FILLER_0_12_342
*1691 FILLER_0_12_350
*1692 FILLER_0_12_37
*1693 FILLER_0_12_45
*1694 FILLER_0_12_49
*1695 FILLER_0_12_70
*1696 FILLER_0_12_78
*1697 FILLER_0_12_92
*1698 FILLER_0_13_101
*1699 FILLER_0_13_11
*1700 FILLER_0_13_110
*1701 FILLER_0_13_118
*1702 FILLER_0_13_126
*1703 FILLER_0_13_134
*1704 FILLER_0_13_140
*1705 FILLER_0_13_150
*1706 FILLER_0_13_158
*1707 FILLER_0_13_166
*1708 FILLER_0_13_169
*1709 FILLER_0_13_177
*1710 FILLER_0_13_185
*1711 FILLER_0_13_19
*1712 FILLER_0_13_193
*1713 FILLER_0_13_201
*1714 FILLER_0_13_209
*1715 FILLER_0_13_217
*1716 FILLER_0_13_245
*1717 FILLER_0_13_253
*1718 FILLER_0_13_27
*1719 FILLER_0_13_276
*1720 FILLER_0_13_281
*1721 FILLER_0_13_294
*1722 FILLER_0_13_3
*1723 FILLER_0_13_303
*1724 FILLER_0_13_311
*1725 FILLER_0_13_319
*1726 FILLER_0_13_327
*1727 FILLER_0_13_335
*1728 FILLER_0_13_337
*1729 FILLER_0_13_341
*1730 FILLER_0_13_347
*1731 FILLER_0_13_35
*1732 FILLER_0_13_43
*1733 FILLER_0_13_51
*1734 FILLER_0_13_55
*1735 FILLER_0_13_57
*1736 FILLER_0_13_65
*1737 FILLER_0_13_73
*1738 FILLER_0_13_93
*1739 FILLER_0_14_11
*1740 FILLER_0_14_122
*1741 FILLER_0_14_130
*1742 FILLER_0_14_138
*1743 FILLER_0_14_154
*1744 FILLER_0_14_162
*1745 FILLER_0_14_170
*1746 FILLER_0_14_189
*1747 FILLER_0_14_19
*1748 FILLER_0_14_195
*1749 FILLER_0_14_219
*1750 FILLER_0_14_226
*1751 FILLER_0_14_234
*1752 FILLER_0_14_242
*1753 FILLER_0_14_246
*1754 FILLER_0_14_250
*1755 FILLER_0_14_266
*1756 FILLER_0_14_27
*1757 FILLER_0_14_280
*1758 FILLER_0_14_29
*1759 FILLER_0_14_293
*1760 FILLER_0_14_3
*1761 FILLER_0_14_303
*1762 FILLER_0_14_307
*1763 FILLER_0_14_316
*1764 FILLER_0_14_329
*1765 FILLER_0_14_342
*1766 FILLER_0_14_352
*1767 FILLER_0_14_37
*1768 FILLER_0_14_41
*1769 FILLER_0_14_55
*1770 FILLER_0_14_68
*1771 FILLER_0_14_72
*1772 FILLER_0_14_80
*1773 FILLER_0_14_85
*1774 FILLER_0_15_107
*1775 FILLER_0_15_111
*1776 FILLER_0_15_120
*1777 FILLER_0_15_136
*1778 FILLER_0_15_142
*1779 FILLER_0_15_162
*1780 FILLER_0_15_183
*1781 FILLER_0_15_192
*1782 FILLER_0_15_223
*1783 FILLER_0_15_225
*1784 FILLER_0_15_229
*1785 FILLER_0_15_233
*1786 FILLER_0_15_241
*1787 FILLER_0_15_252
*1788 FILLER_0_15_258
*1789 FILLER_0_15_26
*1790 FILLER_0_15_272
*1791 FILLER_0_15_3
*1792 FILLER_0_15_311
*1793 FILLER_0_15_318
*1794 FILLER_0_15_329
*1795 FILLER_0_15_337
*1796 FILLER_0_15_350
*1797 FILLER_0_15_57
*1798 FILLER_0_15_61
*1799 FILLER_0_15_75
*1800 FILLER_0_15_83
*1801 FILLER_0_16_103
*1802 FILLER_0_16_11
*1803 FILLER_0_16_111
*1804 FILLER_0_16_130
*1805 FILLER_0_16_138
*1806 FILLER_0_16_141
*1807 FILLER_0_16_16
*1808 FILLER_0_16_175
*1809 FILLER_0_16_197
*1810 FILLER_0_16_213
*1811 FILLER_0_16_25
*1812 FILLER_0_16_253
*1813 FILLER_0_16_261
*1814 FILLER_0_16_276
*1815 FILLER_0_16_284
*1816 FILLER_0_16_29
*1817 FILLER_0_16_3
*1818 FILLER_0_16_305
*1819 FILLER_0_16_309
*1820 FILLER_0_16_317
*1821 FILLER_0_16_321
*1822 FILLER_0_16_326
*1823 FILLER_0_16_334
*1824 FILLER_0_16_38
*1825 FILLER_0_16_48
*1826 FILLER_0_16_56
*1827 FILLER_0_16_64
*1828 FILLER_0_16_72
*1829 FILLER_0_16_78
*1830 FILLER_0_17_113
*1831 FILLER_0_17_121
*1832 FILLER_0_17_132
*1833 FILLER_0_17_146
*1834 FILLER_0_17_166
*1835 FILLER_0_17_169
*1836 FILLER_0_17_177
*1837 FILLER_0_17_189
*1838 FILLER_0_17_197
*1839 FILLER_0_17_210
*1840 FILLER_0_17_218
*1841 FILLER_0_17_225
*1842 FILLER_0_17_233
*1843 FILLER_0_17_239
*1844 FILLER_0_17_25
*1845 FILLER_0_17_254
*1846 FILLER_0_17_262
*1847 FILLER_0_17_3
*1848 FILLER_0_17_320
*1849 FILLER_0_17_334
*1850 FILLER_0_17_340
*1851 FILLER_0_17_348
*1852 FILLER_0_17_53
*1853 FILLER_0_17_81
*1854 FILLER_0_17_87
*1855 FILLER_0_18_11
*1856 FILLER_0_18_138
*1857 FILLER_0_18_147
*1858 FILLER_0_18_157
*1859 FILLER_0_18_165
*1860 FILLER_0_18_173
*1861 FILLER_0_18_177
*1862 FILLER_0_18_188
*1863 FILLER_0_18_19
*1864 FILLER_0_18_249
*1865 FILLER_0_18_27
*1866 FILLER_0_18_29
*1867 FILLER_0_18_294
*1868 FILLER_0_18_3
*1869 FILLER_0_18_300
*1870 FILLER_0_18_309
*1871 FILLER_0_18_317
*1872 FILLER_0_18_323
*1873 FILLER_0_18_327
*1874 FILLER_0_18_333
*1875 FILLER_0_18_351
*1876 FILLER_0_18_37
*1877 FILLER_0_18_45
*1878 FILLER_0_18_49
*1879 FILLER_0_18_67
*1880 FILLER_0_18_73
*1881 FILLER_0_18_81
*1882 FILLER_0_18_85
*1883 FILLER_0_19_107
*1884 FILLER_0_19_11
*1885 FILLER_0_19_111
*1886 FILLER_0_19_113
*1887 FILLER_0_19_121
*1888 FILLER_0_19_127
*1889 FILLER_0_19_135
*1890 FILLER_0_19_149
*1891 FILLER_0_19_163
*1892 FILLER_0_19_169
*1893 FILLER_0_19_177
*1894 FILLER_0_19_18
*1895 FILLER_0_19_184
*1896 FILLER_0_19_192
*1897 FILLER_0_19_200
*1898 FILLER_0_19_221
*1899 FILLER_0_19_225
*1900 FILLER_0_19_231
*1901 FILLER_0_19_244
*1902 FILLER_0_19_252
*1903 FILLER_0_19_3
*1904 FILLER_0_19_32
*1905 FILLER_0_19_323
*1906 FILLER_0_19_330
*1907 FILLER_0_19_337
*1908 FILLER_0_19_353
*1909 FILLER_0_19_41
*1910 FILLER_0_19_49
*1911 FILLER_0_19_55
*1912 FILLER_0_19_57
*1913 FILLER_0_19_65
*1914 FILLER_0_19_73
*1915 FILLER_0_19_81
*1916 FILLER_0_19_89
*1917 FILLER_0_19_99
*1918 FILLER_0_1_105
*1919 FILLER_0_1_11
*1920 FILLER_0_1_111
*1921 FILLER_0_1_113
*1922 FILLER_0_1_121
*1923 FILLER_0_1_141
*1924 FILLER_0_1_149
*1925 FILLER_0_1_157
*1926 FILLER_0_1_165
*1927 FILLER_0_1_169
*1928 FILLER_0_1_177
*1929 FILLER_0_1_185
*1930 FILLER_0_1_19
*1931 FILLER_0_1_193
*1932 FILLER_0_1_201
*1933 FILLER_0_1_209
*1934 FILLER_0_1_217
*1935 FILLER_0_1_223
*1936 FILLER_0_1_225
*1937 FILLER_0_1_233
*1938 FILLER_0_1_241
*1939 FILLER_0_1_249
*1940 FILLER_0_1_257
*1941 FILLER_0_1_265
*1942 FILLER_0_1_27
*1943 FILLER_0_1_273
*1944 FILLER_0_1_279
*1945 FILLER_0_1_281
*1946 FILLER_0_1_289
*1947 FILLER_0_1_297
*1948 FILLER_0_1_3
*1949 FILLER_0_1_305
*1950 FILLER_0_1_313
*1951 FILLER_0_1_321
*1952 FILLER_0_1_329
*1953 FILLER_0_1_335
*1954 FILLER_0_1_337
*1955 FILLER_0_1_345
*1956 FILLER_0_1_35
*1957 FILLER_0_1_353
*1958 FILLER_0_1_43
*1959 FILLER_0_1_51
*1960 FILLER_0_1_55
*1961 FILLER_0_1_57
*1962 FILLER_0_1_65
*1963 FILLER_0_1_73
*1964 FILLER_0_1_81
*1965 FILLER_0_1_89
*1966 FILLER_0_1_97
*1967 FILLER_0_20_10
*1968 FILLER_0_20_111
*1969 FILLER_0_20_119
*1970 FILLER_0_20_125
*1971 FILLER_0_20_130
*1972 FILLER_0_20_138
*1973 FILLER_0_20_141
*1974 FILLER_0_20_149
*1975 FILLER_0_20_157
*1976 FILLER_0_20_166
*1977 FILLER_0_20_190
*1978 FILLER_0_20_197
*1979 FILLER_0_20_203
*1980 FILLER_0_20_207
*1981 FILLER_0_20_215
*1982 FILLER_0_20_223
*1983 FILLER_0_20_231
*1984 FILLER_0_20_239
*1985 FILLER_0_20_247
*1986 FILLER_0_20_251
*1987 FILLER_0_20_253
*1988 FILLER_0_20_267
*1989 FILLER_0_20_275
*1990 FILLER_0_20_279
*1991 FILLER_0_20_288
*1992 FILLER_0_20_296
*1993 FILLER_0_20_301
*1994 FILLER_0_20_307
*1995 FILLER_0_20_309
*1996 FILLER_0_20_317
*1997 FILLER_0_20_325
*1998 FILLER_0_20_334
*1999 FILLER_0_20_35
*2000 FILLER_0_20_41
*2001 FILLER_0_20_47
*2002 FILLER_0_20_56
*2003 FILLER_0_20_69
*2004 FILLER_0_20_80
*2005 FILLER_0_20_85
*2006 FILLER_0_21_142
*2007 FILLER_0_21_15
*2008 FILLER_0_21_150
*2009 FILLER_0_21_155
*2010 FILLER_0_21_167
*2011 FILLER_0_21_174
*2012 FILLER_0_21_180
*2013 FILLER_0_21_194
*2014 FILLER_0_21_200
*2015 FILLER_0_21_220
*2016 FILLER_0_21_241
*2017 FILLER_0_21_266
*2018 FILLER_0_21_27
*2019 FILLER_0_21_278
*2020 FILLER_0_21_281
*2021 FILLER_0_21_288
*2022 FILLER_0_21_292
*2023 FILLER_0_21_298
*2024 FILLER_0_21_306
*2025 FILLER_0_21_314
*2026 FILLER_0_21_337
*2027 FILLER_0_21_35
*2028 FILLER_0_21_352
*2029 FILLER_0_21_44
*2030 FILLER_0_21_52
*2031 FILLER_0_21_57
*2032 FILLER_0_21_65
*2033 FILLER_0_21_74
*2034 FILLER_0_21_78
*2035 FILLER_0_21_9
*2036 FILLER_0_21_92
*2037 FILLER_0_22_110
*2038 FILLER_0_22_118
*2039 FILLER_0_22_134
*2040 FILLER_0_22_141
*2041 FILLER_0_22_164
*2042 FILLER_0_22_178
*2043 FILLER_0_22_186
*2044 FILLER_0_22_194
*2045 FILLER_0_22_204
*2046 FILLER_0_22_223
*2047 FILLER_0_22_231