*SPEF "ieee 1481-1999"
*DESIGN "cordic"
*DATE "11:11:11 Fri 11 11, 1111"
*VENDOR "OpenRCX"
*PROGRAM "Parallel Extraction"
*VERSION "1.0"
*DESIGN_FLOW "NAME_SCOPE LOCAL" "PIN_CAP NONE"
*DIVIDER /
*DELIMITER :
*BUS_DELIMITER []
*T_UNIT 1 NS
*C_UNIT 1 PF
*R_UNIT 1 OHM
*L_UNIT 1 HENRY

*NAME_MAP
*3 clk
*4 cos[0]
*5 cos[10]
*6 cos[11]
*7 cos[12]
*8 cos[13]
*9 cos[14]
*10 cos[15]
*11 cos[1]
*12 cos[2]
*13 cos[3]
*14 cos[4]
*15 cos[5]
*16 cos[6]
*17 cos[7]
*18 cos[8]
*19 cos[9]
*20 in_valid
*21 out_valid
*22 ready
*23 rstb
*24 sin[0]
*25 sin[10]
*26 sin[11]
*27 sin[12]
*28 sin[13]
*29 sin[14]
*30 sin[15]
*31 sin[1]
*32 sin[2]
*33 sin[3]
*34 sin[4]
*35 sin[5]
*36 sin[6]
*37 sin[7]
*38 sin[8]
*39 sin[9]
*40 theta[0]
*41 theta[10]
*42 theta[11]
*43 theta[12]
*44 theta[13]
*45 theta[14]
*46 theta[15]
*47 theta[1]
*48 theta[2]
*49 theta[3]
*50 theta[4]
*51 theta[5]
*52 theta[6]
*53 theta[7]
*54 theta[8]
*55 theta[9]
*56 _0107_
*57 _0108_
*58 _0109_
*59 _0110_
*60 _0111_
*61 _0112_
*62 _0113_
*63 _0114_
*64 _0115_
*65 _0116_
*66 _0117_
*67 _0118_
*68 _0119_
*69 _0120_
*70 _0121_
*71 _0122_
*72 _0123_
*73 _0124_
*74 _0125_
*75 _0126_
*76 _0127_
*77 _0128_
*78 _0129_
*79 _0130_
*80 _0131_
*81 _0132_
*82 _0133_
*83 _0134_
*84 _0135_
*85 _0136_
*86 _0137_
*87 _0138_
*88 _0139_
*89 _0140_
*90 _0141_
*91 _0142_
*92 _0143_
*93 _0144_
*94 _0145_
*95 _0146_
*96 _0147_
*97 _0148_
*98 _0149_
*99 _0150_
*100 _0151_
*101 _0152_
*102 _0153_
*103 _0154_
*104 _0155_
*105 _0156_
*106 _0157_
*107 _0158_
*108 _0159_
*109 _0160_
*110 _0161_
*111 _0162_
*112 _0163_
*113 _0164_
*114 _0165_
*115 _0166_
*116 _0167_
*117 _0168_
*118 _0169_
*119 _0170_
*120 _0171_
*121 _0172_
*122 _0173_
*123 _0174_
*124 _0175_
*125 _0176_
*126 _0177_
*127 _0178_
*128 _0179_
*129 _0180_
*130 _0181_
*131 _0182_
*132 _0183_
*133 _0184_
*134 _0185_
*135 _0186_
*136 _0187_
*137 _0188_
*138 _0189_
*139 _0190_
*140 _0191_
*141 _0192_
*142 _0193_
*143 _0194_
*144 _0195_
*145 _0196_
*146 _0197_
*147 _0198_
*148 _0199_
*149 _0200_
*150 _0201_
*151 _0202_
*152 _0203_
*153 _0204_
*154 _0205_
*155 _0206_
*156 _0207_
*157 _0208_
*158 _0209_
*159 _0210_
*160 _0211_
*161 _0212_
*162 _0213_
*163 _0214_
*164 _0215_
*165 _0216_
*166 _0217_
*167 _0218_
*168 _0219_
*169 _0220_
*170 _0221_
*171 _0222_
*172 _0223_
*173 _0224_
*174 _0225_
*175 _0226_
*176 _0227_
*177 _0228_
*178 _0229_
*179 _0230_
*180 _0231_
*181 _0232_
*182 _0233_
*183 _0234_
*184 _0235_
*185 _0236_
*186 _0237_
*187 _0238_
*188 _0239_
*189 _0240_
*190 _0241_
*191 _0242_
*192 _0243_
*193 _0244_
*194 _0245_
*195 _0246_
*196 _0247_
*197 _0248_
*198 _0249_
*199 _0250_
*200 _0251_
*201 _0252_
*202 _0253_
*203 _0254_
*204 _0255_
*205 _0256_
*206 _0257_
*207 _0258_
*208 _0259_
*209 _0260_
*210 _0261_
*211 _0262_
*212 _0263_
*213 _0264_
*214 _0265_
*215 _0266_
*216 _0267_
*217 _0268_
*218 _0269_
*219 _0270_
*220 _0271_
*221 _0272_
*222 _0273_
*223 _0274_
*224 _0275_
*225 _0276_
*226 _0277_
*227 _0278_
*228 _0279_
*229 _0280_
*230 _0281_
*231 _0282_
*232 _0283_
*233 _0284_
*234 _0285_
*235 _0286_
*236 _0287_
*237 _0288_
*238 _0289_
*239 _0290_
*240 _0291_
*241 _0292_
*242 _0293_
*243 _0294_
*244 _0295_
*245 _0296_
*246 _0297_
*247 _0298_
*248 _0299_
*249 _0300_
*250 _0301_
*251 _0302_
*252 _0303_
*253 _0304_
*254 _0305_
*255 _0306_
*256 _0307_
*257 _0308_
*258 _0309_
*259 _0310_
*260 _0311_
*261 _0312_
*262 _0313_
*263 _0314_
*264 _0315_
*265 _0316_
*266 _0317_
*267 _0318_
*268 _0319_
*269 _0320_
*270 _0321_
*271 _0322_
*272 _0323_
*273 _0324_
*274 _0325_
*275 _0326_
*276 _0327_
*277 _0328_
*278 _0329_
*279 _0330_
*280 _0331_
*281 _0332_
*282 _0333_
*283 _0334_
*284 _0335_
*285 _0336_
*286 _0337_
*287 _0338_
*288 _0339_
*289 _0340_
*290 _0341_
*291 _0342_
*292 _0343_
*293 _0344_
*294 _0345_
*295 _0346_
*296 _0347_
*297 _0348_
*298 _0349_
*299 _0350_
*300 _0351_
*301 _0352_
*302 _0353_
*303 _0354_
*304 _0355_
*305 _0356_
*306 _0357_
*307 _0358_
*308 _0359_
*309 _0360_
*310 _0361_
*311 _0362_
*312 _0363_
*313 _0364_
*314 _0365_
*315 _0366_
*316 _0367_
*317 _0368_
*318 _0369_
*319 _0370_
*320 _0371_
*321 _0372_
*322 _0373_
*323 _0374_
*324 _0375_
*325 _0376_
*326 _0377_
*327 _0378_
*328 _0379_
*329 _0380_
*330 _0381_
*331 _0382_
*332 _0383_
*333 _0384_
*334 _0385_
*335 _0386_
*336 _0387_
*337 _0388_
*338 _0389_
*339 _0390_
*340 _0391_
*341 _0392_
*342 _0393_
*343 _0394_
*344 _0395_
*345 _0396_
*346 _0397_
*347 _0398_
*348 _0399_
*349 _0400_
*350 _0401_
*351 _0402_
*352 _0403_
*353 _0404_
*354 _0405_
*355 _0406_
*356 _0407_
*357 _0408_
*358 _0409_
*359 _0410_
*360 _0411_
*361 _0412_
*362 _0413_
*363 _0414_
*364 _0415_
*365 _0416_
*366 _0417_
*367 _0418_
*368 _0419_
*369 _0420_
*370 _0421_
*371 _0422_
*372 _0423_
*373 _0424_
*374 _0425_
*375 _0426_
*376 _0427_
*377 _0428_
*378 _0429_
*379 _0430_
*380 _0431_
*381 _0432_
*382 _0433_
*383 _0434_
*384 _0435_
*385 _0436_
*386 _0437_
*387 _0438_
*388 _0439_
*389 _0440_
*390 _0441_
*391 _0442_
*392 _0443_
*393 _0444_
*394 _0445_
*395 _0446_
*396 _0447_
*397 _0448_
*398 _0449_
*399 _0450_
*400 _0451_
*401 _0452_
*402 _0453_
*403 _0454_
*404 _0455_
*405 _0456_
*406 _0457_
*407 _0458_
*408 _0459_
*409 _0460_
*410 _0461_
*411 _0462_
*412 _0463_
*413 _0464_
*414 _0465_
*415 _0466_
*416 _0467_
*417 _0468_
*418 _0469_
*419 _0470_
*420 _0471_
*421 _0472_
*422 _0473_
*423 _0474_
*424 _0475_
*425 _0476_
*426 _0477_
*427 _0478_
*428 _0479_
*429 _0480_
*430 _0481_
*431 _0482_
*432 _0483_
*433 _0484_
*434 _0485_
*435 _0486_
*436 _0487_
*437 _0488_
*438 _0489_
*439 _0490_
*440 _0491_
*441 _0492_
*442 _0493_
*443 _0494_
*444 _0495_
*445 _0496_
*446 _0497_
*447 _0498_
*448 _0499_
*449 _0500_
*450 _0501_
*451 _0502_
*452 _0503_
*453 _0504_
*454 _0505_
*455 _0506_
*456 _0507_
*457 _0508_
*458 _0509_
*459 _0510_
*460 _0511_
*461 _0512_
*462 _0513_
*463 _0514_
*464 _0515_
*465 _0516_
*466 _0517_
*467 _0518_
*468 _0519_
*469 _0520_
*470 _0521_
*471 _0522_
*472 _0523_
*473 _0524_
*474 _0525_
*475 _0526_
*476 _0527_
*477 _0528_
*478 _0529_
*479 _0530_
*480 _0531_
*481 _0532_
*482 _0533_
*483 _0534_
*484 _0535_
*485 _0536_
*486 _0537_
*487 _0538_
*488 _0539_
*489 _0540_
*490 _0541_
*491 _0542_
*492 _0543_
*493 _0544_
*494 _0545_
*495 _0546_
*496 _0547_
*497 _0548_
*498 _0549_
*499 _0550_
*500 _0551_
*501 _0552_
*502 _0553_
*503 _0554_
*504 _0555_
*505 _0556_
*506 _0557_
*507 _0558_
*508 _0559_
*509 _0560_
*510 _0561_
*511 _0562_
*512 _0563_
*513 _0564_
*514 _0565_
*515 _0566_
*516 _0567_
*517 _0568_
*518 _0569_
*519 _0570_
*520 _0571_
*521 _0572_
*522 _0573_
*523 _0574_
*524 _0575_
*525 _0576_
*526 _0577_
*527 _0578_
*528 _0579_
*529 _0580_
*530 _0581_
*531 _0582_
*532 _0583_
*533 _0584_
*534 _0585_
*535 _0586_
*536 _0587_
*537 _0588_
*538 _0589_
*539 _0590_
*540 _0591_
*541 _0592_
*542 _0593_
*543 _0594_
*544 _0595_
*545 _0596_
*546 _0597_
*547 _0598_
*548 _0599_
*549 _0600_
*550 _0601_
*551 _0602_
*552 _0603_
*553 _0604_
*554 _0605_
*555 _0606_
*556 _0607_
*557 _0608_
*558 _0609_
*559 _0610_
*560 _0611_
*561 _0612_
*562 _0613_
*563 _0614_
*564 _0615_
*565 _0616_
*566 _0617_
*567 _0618_
*568 _0619_
*569 _0620_
*570 _0621_
*571 _0622_
*572 _0623_
*573 _0624_
*574 _0625_
*575 _0626_
*576 _0627_
*577 _0628_
*578 _0629_
*579 _0630_
*580 _0631_
*581 _0632_
*582 _0633_
*583 _0634_
*584 _0635_
*585 _0636_
*586 _0637_
*587 _0638_
*588 _0639_
*589 _0640_
*590 _0641_
*591 _0642_
*592 _0643_
*593 _0644_
*594 _0645_
*595 _0646_
*596 _0647_
*597 _0648_
*598 _0649_
*599 _0650_
*600 _0651_
*601 _0652_
*602 _0653_
*603 _0654_
*604 _0655_
*605 _0656_
*606 _0657_
*607 _0658_
*608 _0659_
*609 _0660_
*610 _0661_
*611 _0662_
*612 _0663_
*613 _0664_
*614 _0665_
*615 _0666_
*616 _0667_
*617 _0668_
*618 _0669_
*619 _0670_
*620 _0671_
*621 _0672_
*622 _0673_
*623 _0674_
*624 _0675_
*625 _0676_
*626 _0677_
*627 _0678_
*628 _0679_
*629 _0680_
*630 _0681_
*631 _0682_
*632 _0683_
*633 _0684_
*634 _0685_
*635 _0686_
*636 _0687_
*637 _0688_
*638 _0689_
*639 _0690_
*640 _0691_
*641 _0692_
*642 _0693_
*643 _0694_
*644 _0695_
*645 _0696_
*646 _0697_
*647 _0698_
*648 _0699_
*649 _0700_
*650 _0701_
*651 _0702_
*652 _0703_
*653 _0704_
*654 _0705_
*655 _0706_
*656 _0707_
*657 _0708_
*658 _0709_
*659 _0710_
*660 _0711_
*661 _0712_
*662 _0713_
*663 _0714_
*664 _0715_
*665 _0716_
*666 _0717_
*667 _0718_
*668 _0719_
*669 _0720_
*670 _0721_
*671 _0722_
*672 _0723_
*673 _0724_
*674 _0725_
*675 _0726_
*676 _0727_
*677 _0728_
*678 _0729_
*679 _0730_
*680 _0731_
*681 _0732_
*682 _0733_
*683 _0734_
*684 _0735_
*685 _0736_
*686 _0737_
*687 _0738_
*688 _0739_
*689 _0740_
*690 _0741_
*691 _0742_
*692 _0743_
*693 _0744_
*694 _0745_
*695 _0746_
*696 _0747_
*697 _0748_
*698 _0749_
*699 _0750_
*700 _0751_
*701 _0752_
*702 _0753_
*703 _0754_
*704 _0755_
*705 _0756_
*706 _0757_
*707 _0758_
*708 _0759_
*709 _0760_
*710 _0761_
*711 _0762_
*712 _0763_
*713 _0764_
*714 _0765_
*715 _0766_
*716 _0767_
*717 _0768_
*718 _0769_
*719 _0770_
*720 _0771_
*721 _0772_
*722 _0773_
*723 _0774_
*724 _0775_
*725 _0776_
*726 _0777_
*727 _0778_
*728 _0779_
*729 _0780_
*730 _0781_
*731 _0782_
*732 _0783_
*733 _0784_
*734 _0785_
*735 _0786_
*736 _0787_
*737 _0788_
*738 _0789_
*739 _0790_
*740 _0791_
*741 _0792_
*742 _0793_
*743 _0794_
*744 _0795_
*745 _0796_
*746 _0797_
*747 _0798_
*748 _0799_
*749 _0800_
*750 _0801_
*751 _0802_
*752 _0803_
*753 _0804_
*754 _0805_
*755 _0806_
*756 _0807_
*757 _0808_
*758 _0809_
*759 _0810_
*760 _0811_
*761 _0812_
*762 _0813_
*763 _0814_
*764 _0815_
*765 _0816_
*766 _0817_
*767 _0818_
*768 _0819_
*769 _0820_
*770 _0821_
*771 _0822_
*772 _0823_
*773 _0824_
*774 _0825_
*775 _0826_
*776 _0827_
*777 _0828_
*778 _0829_
*779 _0830_
*780 _0831_
*781 _0832_
*782 _0833_
*783 _0834_
*784 _0835_
*785 _0836_
*786 _0837_
*787 _0838_
*788 _0839_
*789 _0840_
*790 _0841_
*791 _0842_
*792 _0843_
*793 _0844_
*794 _0845_
*795 _0846_
*796 _0847_
*797 _0848_
*798 _0849_
*799 _0850_
*800 _0851_
*801 _0852_
*802 _0853_
*803 _0854_
*804 _0855_
*805 _0856_
*806 _0857_
*807 _0858_
*808 _0859_
*809 _0860_
*810 _0861_
*811 _0862_
*812 _0863_
*813 _0864_
*814 _0865_
*815 _0866_
*816 _0867_
*817 _0868_
*818 _0869_
*819 _0870_
*820 _0871_
*821 _0872_
*822 _0873_
*823 _0874_
*824 _0875_
*825 _0876_
*826 _0877_
*827 _0878_
*828 _0879_
*829 _0880_
*830 _0881_
*831 _0882_
*832 _0883_
*833 _0884_
*834 _0885_
*835 _0886_
*836 _0887_
*837 _0888_
*838 _0889_
*839 _0890_
*840 _0891_
*841 _0892_
*842 _0893_
*843 _0894_
*844 _0895_
*845 _0896_
*846 _0897_
*847 _0898_
*848 _0899_
*849 _0900_
*850 _0901_
*851 _0902_
*852 _0903_
*853 _0904_
*854 _0905_
*855 _0906_
*856 _0907_
*857 _0908_
*858 _0909_
*859 _0910_
*860 _0911_
*861 _0912_
*862 _0913_
*863 _0914_
*864 _0915_
*865 _0916_
*866 _0917_
*867 _0918_
*868 _0919_
*869 _0920_
*870 _0921_
*871 _0922_
*872 _0923_
*873 _0924_
*874 _0925_
*875 _0926_
*876 _0927_
*877 _0928_
*878 _0929_
*879 _0930_
*880 _0931_
*881 _0932_
*882 _0933_
*883 _0934_
*884 _0935_
*885 _0936_
*886 _0937_
*887 _0938_
*888 _0939_
*889 _0940_
*890 _0941_
*891 _0942_
*892 _0943_
*893 _0944_
*894 _0945_
*895 _0946_
*896 _0947_
*897 _0948_
*898 _0949_
*899 _0950_
*900 _0951_
*901 _0952_
*902 _0953_
*903 _0954_
*904 _0955_
*905 _0956_
*906 _0957_
*907 _0958_
*908 _0959_
*909 _0960_
*910 _0961_
*911 _0962_
*912 _0963_
*913 _0964_
*914 _0965_
*915 _0966_
*916 _0967_
*917 _0968_
*918 _0969_
*919 _0970_
*920 _0971_
*921 _0972_
*922 _0973_
*923 _0974_
*924 _0975_
*925 _0976_
*926 _0977_
*927 _0978_
*928 _0979_
*929 _0980_
*930 _0981_
*931 _0982_
*932 _0983_
*933 _0984_
*934 _0985_
*935 _0986_
*936 _0987_
*937 _0988_
*938 _0989_
*939 _0990_
*940 _0991_
*941 _0992_
*942 _0993_
*943 _0994_
*944 _0995_
*945 _0996_
*946 _0997_
*947 _0998_
*948 _0999_
*949 _1000_
*950 _1001_
*951 _1002_
*952 _1003_
*953 _1004_
*954 _1005_
*955 _1006_
*956 _1007_
*957 _1008_
*958 _1009_
*959 _1010_
*960 _1011_
*961 _1012_
*962 _1013_
*963 _1014_
*964 _1015_
*965 _1016_
*966 _1017_
*967 _1018_
*968 _1019_
*969 _1020_
*970 _1021_
*971 _1022_
*972 _1023_
*973 _1024_
*974 _1025_
*975 _1026_
*976 _1027_
*977 _1028_
*978 _1029_
*979 _1030_
*980 _1031_
*981 _1032_
*982 _1033_
*983 _1034_
*984 _1035_
*985 _1036_
*986 _1037_
*987 _1038_
*988 _1039_
*989 _1040_
*990 _1041_
*991 _1042_
*992 _1043_
*993 _1044_
*994 _1045_
*995 _1046_
*996 _1047_
*997 _1048_
*998 _1049_
*999 _1050_
*1000 _1051_
*1001 _1052_
*1002 _1053_
*1003 _1054_
*1004 _1055_
*1005 _1056_
*1006 _1057_
*1007 _1058_
*1008 _1059_
*1009 _1060_
*1010 _1061_
*1011 _1062_
*1012 _1063_
*1013 _1064_
*1014 _1065_
*1015 _1066_
*1016 _1067_
*1017 _1068_
*1018 _1069_
*1019 _1070_
*1020 _1071_
*1021 _1072_
*1022 _1073_
*1023 _1074_
*1024 _1075_
*1025 _1076_
*1026 _1077_
*1027 _1078_
*1028 _1079_
*1029 _1080_
*1030 _1081_
*1031 _1082_
*1032 _1083_
*1033 _1084_
*1034 _1085_
*1035 _1086_
*1036 _1087_
*1037 _1088_
*1038 _1089_
*1039 _1090_
*1040 _1091_
*1041 _1092_
*1042 _1093_
*1043 _1094_
*1044 _1095_
*1045 _1096_
*1046 _1097_
*1047 _1098_
*1048 _1099_
*1049 _1100_
*1050 _1101_
*1051 _1102_
*1052 _1103_
*1053 _1104_
*1054 _1105_
*1055 _1106_
*1056 _1107_
*1057 _1108_
*1058 _1109_
*1059 _1110_
*1060 _1111_
*1061 _1112_
*1062 _1113_
*1063 _1114_
*1064 _1115_
*1065 _1116_
*1066 _1117_
*1067 _1118_
*1068 _1119_
*1069 _1120_
*1070 _1121_
*1071 _1122_
*1072 _1123_
*1073 _1124_
*1074 _1125_
*1075 _1126_
*1076 _1127_
*1077 _1128_
*1078 _1129_
*1079 _1130_
*1080 _1131_
*1081 _1132_
*1082 _1133_
*1083 _1134_
*1084 _1135_
*1085 _1136_
*1086 _1137_
*1087 _1138_
*1088 _1139_
*1089 _1140_
*1090 _1141_
*1091 _1142_
*1092 _1143_
*1093 _1144_
*1094 _1145_
*1095 _1146_
*1096 _1147_
*1097 _1148_
*1098 _1149_
*1099 _1150_
*1100 _1151_
*1101 _1152_
*1102 _1153_
*1103 _1154_
*1104 _1155_
*1105 _1156_
*1106 _1157_
*1107 _1158_
*1108 _1159_
*1109 _1160_
*1110 _1161_
*1111 _1162_
*1112 _1163_
*1113 _1164_
*1114 _1165_
*1115 _1166_
*1116 _1167_
*1117 _1168_
*1118 _1169_
*1119 _1170_
*1120 _1171_
*1121 _1172_
*1122 _1173_
*1123 _1174_
*1124 _1175_
*1125 _1176_
*1126 _1177_
*1127 _1178_
*1128 _1179_
*1129 _1180_
*1130 _1181_
*1131 _1182_
*1132 _1183_
*1133 _1184_
*1134 _1185_
*1135 _1186_
*1136 _1187_
*1137 _1188_
*1138 _1189_
*1139 _1190_
*1140 _1191_
*1141 _1192_
*1142 _1193_
*1143 _1194_
*1144 _1195_
*1145 _1196_
*1146 _1197_
*1147 _1198_
*1148 _1199_
*1149 _1200_
*1150 _1201_
*1151 _1202_
*1152 _1203_
*1153 _1204_
*1154 _1205_
*1155 _1206_
*1156 _1207_
*1157 _1208_
*1158 _1209_
*1159 _1210_
*1160 _1211_
*1161 _1212_
*1162 _1213_
*1163 _1214_
*1164 _1215_
*1165 _1216_
*1166 _1217_
*1167 _1218_
*1168 _1219_
*1169 _1220_
*1170 _1221_
*1171 _1222_
*1172 _1223_
*1173 _1224_
*1174 _1225_
*1175 _1226_
*1176 _1227_
*1177 _1228_
*1178 _1229_
*1179 _1230_
*1180 _1231_
*1181 _1232_
*1182 _1233_
*1183 _1234_
*1184 _1235_
*1185 _1236_
*1186 _1237_
*1187 _1238_
*1188 _1239_
*1189 _1240_
*1190 _1241_
*1191 _1242_
*1192 _1243_
*1193 _1244_
*1194 _1245_
*1195 _1246_
*1196 _1247_
*1197 _1248_
*1198 _1249_
*1199 _1250_
*1200 _1251_
*1201 _1252_
*1202 _1253_
*1203 _1254_
*1204 _1255_
*1205 _1256_
*1206 _1257_
*1207 _1258_
*1208 _1259_
*1209 _1260_
*1210 _1261_
*1211 _1262_
*1212 _1263_
*1213 _1264_
*1214 _1265_
*1215 _1266_
*1216 _1267_
*1217 _1268_
*1218 _1269_
*1219 _1270_
*1220 _1271_
*1221 _1272_
*1222 _1273_
*1223 _1274_
*1224 _1275_
*1225 _1276_
*1226 _1277_
*1227 _1278_
*1228 _1279_
*1229 _1280_
*1230 _1281_
*1231 _1282_
*1232 _1283_
*1233 _1284_
*1234 _1285_
*1235 _1286_
*1236 _1287_
*1237 _1288_
*1238 _1289_
*1239 _1290_
*1240 _1291_
*1241 _1292_
*1242 _1293_
*1243 _1294_
*1244 _1295_
*1245 _1296_
*1246 _1297_
*1247 _1298_
*1248 _1299_
*1249 _1300_
*1250 _1301_
*1251 _1302_
*1252 _1303_
*1253 _1304_
*1254 _1305_
*1255 _1306_
*1256 _1307_
*1257 _1308_
*1258 _1309_
*1259 _1310_
*1260 _1311_
*1261 _1312_
*1262 _1313_
*1263 _1314_
*1264 _1315_
*1265 _1316_
*1266 _1317_
*1267 _1318_
*1268 _1319_
*1269 _1320_
*1270 _1321_
*1271 _1322_
*1272 _1323_
*1273 _1324_
*1274 _1325_
*1275 _1326_
*1276 _1327_
*1277 _1328_
*1278 _1329_
*1279 _1330_
*1280 _1331_
*1281 _1332_
*1282 _1333_
*1283 _1334_
*1284 _1335_
*1285 _1336_
*1286 _1337_
*1287 _1338_
*1288 _1339_
*1289 _1340_
*1290 _1341_
*1291 _1342_
*1292 _1343_
*1293 _1344_
*1294 _1345_
*1295 _1346_
*1296 _1347_
*1297 _1348_
*1298 _1349_
*1299 _1350_
*1300 _1351_
*1301 _1352_
*1302 _1353_
*1303 _1354_
*1304 _1355_
*1305 _1356_
*1306 _1357_
*1307 _1358_
*1308 _1359_
*1309 _1360_
*1310 _1361_
*1311 _1362_
*1312 _1363_
*1313 _1364_
*1314 _1365_
*1315 _1366_
*1316 _1367_
*1317 _1368_
*1318 _1369_
*1319 _1370_
*1320 _1371_
*1321 _1372_
*1322 _1373_
*1323 _1374_
*1324 _1375_
*1325 _1376_
*1326 _1377_
*1327 _1378_
*1328 _1379_
*1329 _1380_
*1330 _1381_
*1331 _1382_
*1332 _1383_
*1333 _1384_
*1334 _1385_
*1335 _1386_
*1336 _1387_
*1337 _1388_
*1338 _1389_
*1339 _1390_
*1340 _1391_
*1341 _1392_
*1342 _1393_
*1343 _1394_
*1344 _1395_
*1345 _1396_
*1346 _1397_
*1347 _1398_
*1348 _1399_
*1349 _1400_
*1350 _1401_
*1351 _1402_
*1352 _1403_
*1353 _1404_
*1354 _1405_
*1355 _1406_
*1356 _1407_
*1357 _1408_
*1358 _1409_
*1359 _1410_
*1360 _1411_
*1361 _1412_
*1362 _1413_
*1363 _1414_
*1364 _1415_
*1365 _1416_
*1366 _1417_
*1367 _1418_
*1368 _1419_
*1369 _1420_
*1370 _1421_
*1371 _1422_
*1372 _1423_
*1373 _1424_
*1374 _1425_
*1375 _1426_
*1376 _1427_
*1377 _1428_
*1378 _1429_
*1379 _1430_
*1380 _1431_
*1381 _1432_
*1382 _1433_
*1383 _1434_
*1384 _1435_
*1385 _1436_
*1386 _1437_
*1387 _1438_
*1388 _1439_
*1389 _1440_
*1390 _1441_
*1391 _1442_
*1392 _1443_
*1393 _1444_
*1394 _1445_
*1395 _1446_
*1396 _1447_
*1397 _1448_
*1398 _1449_
*1399 _1450_
*1400 _1451_
*1401 _1452_
*1402 _1453_
*1403 _1454_
*1404 _1455_
*1405 _1456_
*1406 _1457_
*1407 _1458_
*1408 _1459_
*1409 _1460_
*1410 _1461_
*1411 _1462_
*1412 _1463_
*1413 _1464_
*1414 _1465_
*1415 _1466_
*1416 _1467_
*1417 _1468_
*1418 _1469_
*1419 _1470_
*1420 _1471_
*1421 _1472_
*1422 _1473_
*1423 _1474_
*1424 _1475_
*1425 _1476_
*1426 _1477_
*1427 _1478_
*1428 _1479_
*1429 _1480_
*1430 _1481_
*1431 _1482_
*1432 _1483_
*1433 _1484_
*1434 _1485_
*1435 _1486_
*1436 _1487_
*1437 _1488_
*1438 _1489_
*1439 _1490_
*1440 _1491_
*1441 _1492_
*1442 _1493_
*1443 _1494_
*1444 _1495_
*1445 _1496_
*1446 _1497_
*1447 _1498_
*1448 _1499_
*1449 _1500_
*1450 _1501_
*1451 _1502_
*1452 _1503_
*1453 _1504_
*1454 _1505_
*1455 _1506_
*1456 _1507_
*1457 _1508_
*1458 _1509_
*1459 _1510_
*1460 _1511_
*1461 _1512_
*1462 _1513_
*1463 _1514_
*1464 _1515_
*1465 _1516_
*1466 _1517_
*1467 _1518_
*1468 _1519_
*1469 _1520_
*1470 _1521_
*1471 _1522_
*1472 _1523_
*1473 _1524_
*1474 _1525_
*1475 _1526_
*1476 _1527_
*1477 _1528_
*1478 _1529_
*1479 _1530_
*1480 _1531_
*1481 _1532_
*1482 _1533_
*1483 _1534_
*1484 _1535_
*1485 _1536_
*1486 _1537_
*1487 _1538_
*1488 _1539_
*1489 _1540_
*1490 _1541_
*1491 _1542_
*1492 _1543_
*1493 _1544_
*1494 _1545_
*1495 _1546_
*1496 _1547_
*1497 _1548_
*1498 _1549_
*1499 _1550_
*1500 _1551_
*1501 _1552_
*1502 _1553_
*1503 _1554_
*1504 _1555_
*1505 _1556_
*1506 _1557_
*1507 _1558_
*1508 _1559_
*1509 _1560_
*1510 _1561_
*1511 _1562_
*1512 _1563_
*1513 _1564_
*1514 _1565_
*1515 _1566_
*1516 _1567_
*1517 _1568_
*1518 _1569_
*1519 _1570_
*1520 _1571_
*1521 _1572_
*1522 _1573_
*1523 _1574_
*1524 _1575_
*1525 _1576_
*1526 _1577_
*1527 _1578_
*1528 _1579_
*1529 _1580_
*1530 _1581_
*1531 _1582_
*1532 _1583_
*1533 _1584_
*1534 _1585_
*1535 _1586_
*1536 _1587_
*1537 _1588_
*1538 _1589_
*1539 _1590_
*1540 _1591_
*1541 _1592_
*1542 _1593_
*1543 _1594_
*1544 _1595_
*1545 _1596_
*1546 _1597_
*1547 _1598_
*1548 _1599_
*1549 _1600_
*1550 _1601_
*1551 _1602_
*1552 _1603_
*1553 _1604_
*1554 _1605_
*1555 _1606_
*1556 _1607_
*1557 _1608_
*1558 _1609_
*1559 _1610_
*1560 _1611_
*1561 _1612_
*1562 _1613_
*1563 _1614_
*1564 _1615_
*1565 _1616_
*1566 _1617_
*1567 _1618_
*1568 _1619_
*1569 _1620_
*1570 _1621_
*1571 _1622_
*1572 _1623_
*1573 _1624_
*1574 _1625_
*1575 _1626_
*1576 _1627_
*1577 _1628_
*1578 _1629_
*1579 _1630_
*1580 _1631_
*1581 _1632_
*1582 _1633_
*1583 _1634_
*1584 _1635_
*1585 _1636_
*1586 _1637_
*1587 _1638_
*1588 _1639_
*1589 _1640_
*1590 _1641_
*1591 _1642_
*1592 _1643_
*1593 _1644_
*1594 _1645_
*1595 _1646_
*1596 _1647_
*1597 _1648_
*1598 _1649_
*1599 _1650_
*1600 _1651_
*1601 _1652_
*1602 _1653_
*1603 _1654_
*1604 _1655_
*1605 _1656_
*1606 _1657_
*1607 _1658_
*1608 _1659_
*1609 _1660_
*1610 _1661_
*1611 _1662_
*1612 _1663_
*1613 _1664_
*1614 _1665_
*1615 _1666_
*1616 _1667_
*1617 _1668_
*1618 _1669_
*1619 _1670_
*1620 _1671_
*1621 _1672_
*1622 _1673_
*1623 _1674_
*1624 _1675_
*1625 _1676_
*1626 _1677_
*1627 _1678_
*1628 _1679_
*1629 _1680_
*1630 _1681_
*1631 _1682_
*1632 _1683_
*1633 _1684_
*1634 _1685_
*1635 _1686_
*1636 _1687_
*1637 _1688_
*1638 _1689_
*1639 _1690_
*1640 _1691_
*1641 _1692_
*1642 _1693_
*1643 _1694_
*1644 _1695_
*1645 _1696_
*1646 _1697_
*1647 _1698_
*1648 _1699_
*1649 _1700_
*1650 _1701_
*1651 _1702_
*1652 _1703_
*1653 _1704_
*1654 _1705_
*1655 _1706_
*1656 _1707_
*1657 _1708_
*1658 _1709_
*1659 _1710_
*1660 _1711_
*1661 _1712_
*1662 _1713_
*1663 _1714_
*1664 _1715_
*1665 _1716_
*1666 _1717_
*1667 _1718_
*1668 _1719_
*1669 _1720_
*1670 _1721_
*1671 _1722_
*1672 _1723_
*1673 _1724_
*1674 _1725_
*1675 _1726_
*1676 _1727_
*1677 _1728_
*1678 _1729_
*1679 _1730_
*1680 _1731_
*1681 _1732_
*1682 _1733_
*1683 _1734_
*1684 _1735_
*1685 _1736_
*1686 _1737_
*1687 _1738_
*1688 _1739_
*1689 _1740_
*1690 _1741_
*1691 _1742_
*1692 _1743_
*1693 _1744_
*1694 _1745_
*1695 _1746_
*1696 _1747_
*1697 _1748_
*1698 _1749_
*1699 _1750_
*1700 _1751_
*1701 _1752_
*1702 _1753_
*1703 _1754_
*1704 _1755_
*1705 _1756_
*1706 _1757_
*1707 _1758_
*1708 _1759_
*1709 _1760_
*1710 _1761_
*1711 _1762_
*1712 _1763_
*1713 _1764_
*1714 _1765_
*1715 _1766_
*1716 _1767_
*1717 _1768_
*1718 _1769_
*1719 _1770_
*1720 _1771_
*1721 _1772_
*1722 _1773_
*1723 _1774_
*1724 _1775_
*1725 _1776_
*1726 _1777_
*1727 _1778_
*1728 _1779_
*1729 _1780_
*1730 _1781_
*1731 _1782_
*1732 _1783_
*1733 _1784_
*1734 _1785_
*1735 _1786_
*1736 _1787_
*1737 _1788_
*1738 _1789_
*1739 _1790_
*1740 _1791_
*1741 _1792_
*1742 _1793_
*1743 _1794_
*1744 _1795_
*1745 _1796_
*1746 _1797_
*1747 _1798_
*1748 _1799_
*1749 _1800_
*1750 _1801_
*1751 _1802_
*1752 _1803_
*1753 _1804_
*1754 _1805_
*1755 _1806_
*1756 _1807_
*1757 _1808_
*1758 _1809_
*1759 _1810_
*1760 _1811_
*1761 _1812_
*1762 _1813_
*1763 _1814_
*1764 _1815_
*1765 _1816_
*1766 _1817_
*1767 _1818_
*1768 _1819_
*1769 _1820_
*1770 _1821_
*1771 _1822_
*1772 _1823_
*1773 _1824_
*1774 _1825_
*1775 _1826_
*1776 _1827_
*1777 _1828_
*1778 _1829_
*1779 _1830_
*1780 _1831_
*1781 _1832_
*1782 _1833_
*1783 _1834_
*1784 _1835_
*1785 _1836_
*1786 _1837_
*1787 _1838_
*1788 _1839_
*1789 _1840_
*1790 _1841_
*1791 _1842_
*1792 _1843_
*1793 _1844_
*1794 _1845_
*1795 _1846_
*1796 _1847_
*1797 _1848_
*1798 _1849_
*1799 _1850_
*1800 _1851_
*1801 _1852_
*1802 _1853_
*1803 _1854_
*1804 _1855_
*1805 _1856_
*1806 _1857_
*1807 _1858_
*1808 _1859_
*1809 _1860_
*1810 _1861_
*1811 _1862_
*1812 _1863_
*1813 _1864_
*1814 _1865_
*1815 _1866_
*1816 _1867_
*1817 _1868_
*1818 _1869_
*1819 _1870_
*1820 _1871_
*1821 _1872_
*1822 _1873_
*1823 _1874_
*1824 _1875_
*1825 _1876_
*1826 _1877_
*1827 _1878_
*1828 _1879_
*1829 _1880_
*1830 _1881_
*1831 _1882_
*1832 _1883_
*1833 _1884_
*1834 _1885_
*1835 _1886_
*1836 _1887_
*1837 _1888_
*1838 _1889_
*1839 _1890_
*1840 _1891_
*1841 _1892_
*1842 _1893_
*1843 _1894_
*1844 _1895_
*1845 _1896_
*1846 _1897_
*1847 _1898_
*1848 _1899_
*1849 _1900_
*1850 _1901_
*1851 _1902_
*1852 _1903_
*1853 _1904_
*1854 _1905_
*1855 _1906_
*1856 _1907_
*1857 _1908_
*1858 _1909_
*1859 _1910_
*1860 _1911_
*1861 _1912_
*1862 _1913_
*1863 _1914_
*1864 _1915_
*1865 _1916_
*1866 _1917_
*1867 _1918_
*1868 _1919_
*1869 _1920_
*1870 _1921_
*1871 _1922_
*1872 _1923_
*1873 _1924_
*1874 _1925_
*1875 _1926_
*1876 _1927_
*1877 _1928_
*1878 _1929_
*1879 _1930_
*1880 _1931_
*1881 _1932_
*1882 _1933_
*1883 _1934_
*1884 _1935_
*1885 _1936_
*1886 _1937_
*1887 _1938_
*1888 _1939_
*1889 _1940_
*1890 _1941_
*1891 _1942_
*1892 _1943_
*1893 _1944_
*1894 _1945_
*1895 _1946_
*1896 _1947_
*1897 _1948_
*1898 _1949_
*1899 _1950_
*1900 _1951_
*1901 _1952_
*1902 _1953_
*1903 _1954_
*1904 _1955_
*1905 _1956_
*1906 _1957_
*1907 _1958_
*1908 _1959_
*1909 _1960_
*1910 _1961_
*1911 _1962_
*1912 _1963_
*1913 _1964_
*1914 _1965_
*1915 _1966_
*1916 _1967_
*1917 _1968_
*1918 _1969_
*1919 _1970_
*1920 _1971_
*1921 _1972_
*1922 _1973_
*1923 _1974_
*1924 _1975_
*1925 _1976_
*1926 _1977_
*1927 _1978_
*1928 _1979_
*1929 _1980_
*1930 _1981_
*1931 _1982_
*1932 _1983_
*1933 _1984_
*1934 _1985_
*1935 _1986_
*1936 _1987_
*1937 _1988_
*1938 _1989_
*1939 _1990_
*1940 _1991_
*1941 _1992_
*1942 _1993_
*1943 _1994_
*1944 _1995_
*1945 _1996_
*1946 _1997_
*1947 _1998_
*1948 _1999_
*1949 _2000_
*1950 _2001_
*1951 _2002_
*1952 _2003_
*1953 _2004_
*1954 _2005_
*1955 _2006_
*1956 _2007_
*1957 _2008_
*1958 _2009_
*1959 _2010_
*1960 _2011_
*1961 _2012_
*1962 _2013_
*1963 _2014_
*1964 _2015_
*1965 _2016_
*1966 _2017_
*1967 _2018_
*1968 _2019_
*1969 _2020_
*1970 _2021_
*1971 _2022_
*1972 _2023_
*1973 _2024_
*1974 _2025_
*1975 _2026_
*1976 _2027_
*1977 _2028_
*1978 _2029_
*1979 _2030_
*1980 _2031_
*1981 _2032_
*1982 _2033_
*1983 _2034_
*1984 _2035_
*1985 _2036_
*1986 _2037_
*1987 _2038_
*1988 _2039_
*1989 _2040_
*1990 _2041_
*1991 _2042_
*1992 _2043_
*1993 _2044_
*1994 _2045_
*1995 _2046_
*1996 _2047_
*1997 _2048_
*1998 _2049_
*1999 _2050_
*2000 _2051_
*2001 _2052_
*2002 _2053_
*2003 _2054_
*2004 _2055_
*2005 _2056_
*2006 _2057_
*2007 _2058_
*2008 _2059_
*2009 _2060_
*2010 _2061_
*2011 _2062_
*2012 _2063_
*2013 _2064_
*2014 _2065_
*2015 _2066_
*2016 _2067_
*2017 _2068_
*2018 _2069_
*2019 _2070_
*2020 _2071_
*2021 _2072_
*2022 _2073_
*2023 _2074_
*2024 _2075_
*2025 _2076_
*2026 _2077_
*2027 _2078_
*2028 _2079_
*2029 _2080_
*2030 _2081_
*2031 _2082_
*2032 _2083_
*2033 _2084_
*2034 _2085_
*2035 _2086_
*2036 _2087_
*2037 _2088_
*2038 _2089_
*2039 _2090_
*2040 _2091_
*2041 _2092_
*2042 _2093_
*2043 _2094_
*2044 _2095_
*2045 _2096_
*2046 _2097_
*2047 _2098_
*2048 _2099_
*2049 _2100_
*2050 _2101_
*2051 _2102_
*2052 _2103_
*2053 _2104_
*2054 _2105_
*2055 _2106_
*2056 _2107_
*2057 _2108_
*2058 _2109_
*2059 _2110_
*2060 _2111_
*2061 _2112_
*2062 _2113_
*2063 _2114_
*2064 _2115_
*2065 _2116_
*2066 _2117_
*2067 _2118_
*2068 _2119_
*2069 _2120_
*2070 _2121_
*2071 _2122_
*2072 _2123_
*2073 _2124_
*2074 _2125_
*2075 _2126_
*2076 _2127_
*2077 _2128_
*2078 _2129_
*2079 _2130_
*2080 _2131_
*2081 _2132_
*2082 _2133_
*2083 _2134_
*2084 _2135_
*2085 _2136_
*2086 _2137_
*2087 _2138_
*2088 _2139_
*2089 _2140_
*2090 _2141_
*2091 _2142_
*2092 _2143_
*2093 _2144_
*2094 _2145_
*2095 _2146_
*2096 _2147_
*2097 _2148_
*2098 _2149_
*2099 _2150_
*2100 _2151_
*2101 _2152_
*2102 _2153_
*2103 _2154_
*2104 _2155_
*2105 _2156_
*2106 _2157_
*2107 _2158_
*2108 _2159_
*2109 _2160_
*2110 _2161_
*2111 _2162_
*2112 _2163_
*2113 _2164_
*2114 _2165_
*2115 _2166_
*2116 _2167_
*2117 _2168_
*2118 _2169_
*2119 _2170_
*2120 _2171_
*2121 _2172_
*2122 _2173_
*2123 _2174_
*2124 _2175_
*2125 _2176_
*2126 _2177_
*2127 _2178_
*2128 _2179_
*2129 _2180_
*2130 _2181_
*2131 _2182_
*2132 _2183_
*2133 _2184_
*2134 _2185_
*2135 _2186_
*2136 _2187_
*2137 _2188_
*2138 _2189_
*2139 _2190_
*2140 _2191_
*2141 _2192_
*2142 _2193_
*2143 _2194_
*2144 _2195_
*2145 _2196_
*2146 _2197_
*2147 _2198_
*2148 _2199_
*2149 _2200_
*2150 _2201_
*2151 _2202_
*2152 _2203_
*2153 _2204_
*2154 _2205_
*2155 _2206_
*2156 _2207_
*2157 _2208_
*2158 _2209_
*2159 _2210_
*2160 _2211_
*2161 _2212_
*2162 _2213_
*2163 _2214_
*2164 _2215_
*2165 _2216_
*2166 _2217_
*2167 _2218_
*2168 _2219_
*2169 _2220_
*2170 _2221_
*2171 _2222_
*2172 _2223_
*2173 _2224_
*2174 _2225_
*2175 _2226_
*2176 _2227_
*2177 _2228_
*2178 _2229_
*2179 _2230_
*2180 _2231_
*2181 _2232_
*2182 _2233_
*2183 _2234_
*2184 _2235_
*2185 _2236_
*2186 _2237_
*2187 _2238_
*2188 _2239_
*2189 _2240_
*2190 _2241_
*2191 _2242_
*2192 _2243_
*2193 _2244_
*2194 _2245_
*2195 _2246_
*2196 _2247_
*2197 _2248_
*2198 _2249_
*2199 _2250_
*2200 _2251_
*2201 _2252_
*2202 _2253_
*2203 _2254_
*2204 _2255_
*2205 _2256_
*2206 _2257_
*2207 _2258_
*2208 _2259_
*2209 _2260_
*2210 _2261_
*2211 _2262_
*2212 _2263_
*2213 _2264_
*2214 _2265_
*2215 _2266_
*2216 _2267_
*2217 _2268_
*2218 _2269_
*2219 _2270_
*2220 _2271_
*2221 _2272_
*2222 _2273_
*2223 _2274_
*2224 _2275_
*2225 _2276_
*2226 _2277_
*2227 _2278_
*2228 _2279_
*2229 _2280_
*2230 _2281_
*2231 _2282_
*2232 _2283_
*2233 _2284_
*2234 _2285_
*2235 _2286_
*2236 _2287_
*2237 _2288_
*2238 _2289_
*2239 _2290_
*2240 _2291_
*2241 _2292_
*2242 _2293_
*2243 _2294_
*2244 _2295_
*2245 _2296_
*2246 _2297_
*2247 _2298_
*2248 _2299_
*2249 _2300_
*2250 _2301_
*2251 _2302_
*2252 _2303_
*2253 _2304_
*2254 _2305_
*2255 _2306_
*2256 _2307_
*2257 _2308_
*2258 _2309_
*2259 _2310_
*2260 _2311_
*2261 _2312_
*2262 _2313_
*2263 _2314_
*2264 _2315_
*2265 _2316_
*2266 _2317_
*2267 _2318_
*2268 _2319_
*2269 _2320_
*2270 _2321_
*2271 _2322_
*2272 _2323_
*2273 _2324_
*2274 _2325_
*2275 _2326_
*2276 _2327_
*2277 _2328_
*2278 _2329_
*2279 _2330_
*2280 _2331_
*2281 _2332_
*2282 _2333_
*2283 _2334_
*2284 _2335_
*2285 _2336_
*2286 _2337_
*2287 _2338_
*2288 _2339_
*2289 _2340_
*2290 _2341_
*2291 _2342_
*2292 _2343_
*2293 _2344_
*2294 _2345_
*2295 _2346_
*2296 clknet_0_clk
*2297 clknet_3_0__leaf_clk
*2298 clknet_3_1__leaf_clk
*2299 clknet_3_2__leaf_clk
*2300 clknet_3_3__leaf_clk
*2301 clknet_3_4__leaf_clk
*2302 clknet_3_5__leaf_clk
*2303 clknet_3_6__leaf_clk
*2304 clknet_3_7__leaf_clk
*2305 gm0\.iter\[0\]
*2306 gm0\.iter\[1\]
*2307 gm0\.iter\[2\]
*2308 gm0\.iter\[3\]
*2309 gm0\.iter\[4\]
*2310 net1
*2311 net10
*2312 net100
*2313 net101
*2314 net102
*2315 net103
*2316 net104
*2317 net105
*2318 net106
*2319 net107
*2320 net108
*2321 net109
*2322 net11
*2323 net110
*2324 net111
*2325 net112
*2326 net113
*2327 net114
*2328 net115
*2329 net116
*2330 net117
*2331 net118
*2332 net119
*2333 net12
*2334 net120
*2335 net121
*2336 net122
*2337 net123
*2338 net124
*2339 net125
*2340 net126
*2341 net127
*2342 net128
*2343 net129
*2344 net13
*2345 net130
*2346 net131
*2347 net132
*2348 net133
*2349 net134
*2350 net135
*2351 net136
*2352 net137
*2353 net138
*2354 net139
*2355 net14
*2356 net140