*SPEF "ieee 1481-1999"
*DESIGN "cordic"
*DATE "11:11:11 Fri 11 11, 1111"
*VENDOR "OpenRCX"
*PROGRAM "Parallel Extraction"
*VERSION "1.0"
*DESIGN_FLOW "NAME_SCOPE LOCAL" "PIN_CAP NONE"
*DIVIDER /
*DELIMITER :
*BUS_DELIMITER []
*T_UNIT 1 NS
*C_UNIT 1 PF
*R_UNIT 1 OHM
*L_UNIT 1 HENRY

*NAME_MAP
*3 clk
*4 cos[0]
*5 cos[10]
*6 cos[11]
*7 cos[12]
*8 cos[13]
*9 cos[14]
*10 cos[15]
*11 cos[1]
*12 cos[2]
*13 cos[3]
*14 cos[4]
*15 cos[5]
*16 cos[6]
*17 cos[7]
*18 cos[8]
*19 cos[9]
*20 in_valid
*21 out_valid
*22 ready
*23 rstb
*24 sin[0]
*25 sin[10]
*26 sin[11]
*27 sin[12]
*28 sin[13]
*29 sin[14]
*30 sin[15]
*31 sin[1]
*32 sin[2]
*33 sin[3]
*34 sin[4]
*35 sin[5]
*36 sin[6]
*37 sin[7]
*38 sin[8]
*39 sin[9]
*40 theta[0]
*41 theta[10]
*42 theta[11]
*43 theta[12]
*44 theta[13]
*45 theta[14]
*46 theta[15]
*47 theta[1]
*48 theta[2]
*49 theta[3]
*50 theta[4]
*51 theta[5]
*52 theta[6]
*53 theta[7]
*54 theta[8]
*55 theta[9]
*56 _0000_
*57 _0001_
*58 _0002_
*59 _0003_
*60 _0004_
*61 _0005_
*62 _0006_
*63 _0007_
*64 _0008_
*65 _0009_
*66 _0010_
*67 _0011_
*68 _0012_
*69 _0013_
*70 _0014_
*71 _0015_
*72 _0016_
*73 _0017_
*74 _0018_
*75 _0019_
*76 _0020_
*77 _0021_
*78 _0022_
*79 _0023_
*80 _0024_
*81 _0025_
*82 _0026_
*83 _0027_
*84 _0028_
*85 _0029_
*86 _0030_
*87 _0031_
*88 _0032_
*89 _0033_
*90 _0034_
*91 _0035_
*92 _0036_
*93 _0037_
*94 _0038_
*95 _0039_
*96 _0040_
*97 _0041_
*98 _0042_
*99 _0043_
*100 _0044_
*101 _0045_
*102 _0046_
*103 _0047_
*104 _0048_
*105 _0049_
*106 _0050_
*107 _0051_
*108 _0052_
*109 _0053_
*110 _0054_
*111 _0055_
*112 _0056_
*113 _0057_
*114 _0058_
*115 _0059_
*116 _0060_
*117 _0061_
*118 _0062_
*119 _0063_
*120 _0064_
*121 _0065_
*122 _0066_
*123 _0067_
*124 _0068_
*125 _0069_
*126 _0070_
*127 _0071_
*128 _0072_
*129 _0073_
*130 _0074_
*131 _0075_
*132 _0076_
*133 _0077_
*134 _0078_
*135 _0079_
*136 _0080_
*137 _0081_
*138 _0082_
*139 _0083_
*140 _0084_
*141 _0085_
*142 _0086_
*143 _0087_
*144 _0088_
*145 _0089_
*146 _0090_
*147 _0091_
*148 _0092_
*149 _0093_
*150 _0094_
*151 _0095_
*152 _0096_
*153 _0097_
*154 _0098_
*155 _0099_
*156 _0100_
*157 _0101_
*158 _0102_
*159 _0103_
*160 _0104_
*161 _0105_
*162 _0106_
*163 _0107_
*164 _0108_
*165 _0109_
*166 _0110_
*167 _0111_
*168 _0112_
*169 _0113_
*170 _0114_
*171 _0115_
*172 _0116_
*173 _0117_
*174 _0118_
*175 _0119_
*176 _0120_
*177 _0121_
*178 _0122_
*179 _0123_
*180 _0124_
*181 _0125_
*182 _0126_
*183 _0127_
*184 _0128_
*185 _0129_
*186 _0130_
*187 _0131_
*188 _0132_
*189 _0133_
*190 _0134_
*191 _0135_
*192 _0136_
*193 _0137_
*194 _0138_
*195 _0139_
*196 _0140_
*197 _0141_
*198 _0142_
*199 _0143_
*200 _0144_
*201 _0145_
*202 _0146_
*203 _0147_
*204 _0148_
*205 _0149_
*206 _0150_
*207 _0151_
*208 _0152_
*209 _0153_
*210 _0154_
*211 _0155_
*212 _0156_
*213 _0157_
*214 _0158_
*215 _0159_
*216 _0160_
*217 _0161_
*218 _0162_
*219 _0163_
*220 _0164_
*221 _0165_
*222 _0166_
*223 _0167_
*224 _0168_
*225 _0169_
*226 _0170_
*227 _0171_
*228 _0172_
*229 _0173_
*230 _0174_
*231 _0175_
*232 _0176_
*233 _0177_
*234 _0178_
*235 _0179_
*236 _0180_
*237 _0181_
*238 _0182_
*239 _0183_
*240 _0184_
*241 _0185_
*242 _0186_
*243 _0187_
*244 _0188_
*245 _0189_
*246 _0190_
*247 _0191_
*248 _0192_
*249 _0193_
*250 _0194_
*251 _0195_
*252 _0196_
*253 _0197_
*254 _0198_
*255 _0199_
*256 _0200_
*257 _0201_
*258 _0202_
*259 _0203_
*260 _0204_
*261 _0205_
*262 _0206_
*263 _0207_
*264 _0208_
*265 _0209_
*266 _0210_
*267 _0211_
*268 _0212_
*269 _0213_
*270 _0214_
*271 _0215_
*272 _0216_
*273 _0217_
*274 _0218_
*275 _0219_
*276 _0220_
*277 _0221_
*278 _0222_
*279 _0223_
*280 _0224_
*281 _0225_
*282 _0226_
*283 _0227_
*284 _0228_
*285 _0229_
*286 _0230_
*287 _0231_
*288 _0232_
*289 _0233_
*290 _0234_
*291 _0235_
*292 _0236_
*293 _0237_
*294 _0238_
*295 _0239_
*296 _0240_
*297 _0241_
*298 _0242_
*299 _0243_
*300 _0244_
*301 _0245_
*302 _0246_
*303 _0247_
*304 _0248_
*305 _0249_
*306 _0250_
*307 _0251_
*308 _0252_
*309 _0253_
*310 _0254_
*311 _0255_
*312 _0256_
*313 _0257_
*314 _0258_
*315 _0259_
*316 _0260_
*317 _0261_
*318 _0262_
*319 _0263_
*320 _0264_
*321 _0265_
*322 _0266_
*323 _0267_
*324 _0268_
*325 _0269_
*326 _0270_
*327 _0271_
*328 _0272_
*329 _0273_
*330 _0274_
*331 _0275_
*332 _0276_
*333 _0277_
*334 _0278_
*335 _0279_
*336 _0280_
*337 _0281_
*338 _0282_
*339 _0283_
*340 _0284_
*341 _0285_
*342 _0286_
*343 _0287_
*344 _0288_
*345 _0289_
*346 _0290_
*347 _0291_
*348 _0292_
*349 _0293_
*350 _0294_
*351 _0295_
*352 _0296_
*353 _0297_
*354 _0298_
*355 _0299_
*356 _0300_
*357 _0301_
*358 _0302_
*359 _0303_
*360 _0304_
*361 _0305_
*362 _0306_
*363 _0307_
*364 _0308_
*365 _0309_
*366 _0310_
*367 _0311_
*368 _0312_
*369 _0313_
*370 _0314_
*371 _0315_
*372 _0316_
*373 _0317_
*374 _0318_
*375 _0319_
*376 _0320_
*377 _0321_
*378 _0322_
*379 _0323_
*380 _0324_
*381 _0325_
*382 _0326_
*383 _0327_
*384 _0328_
*385 _0329_
*386 _0330_
*387 _0331_
*388 _0332_
*389 _0333_
*390 _0334_
*391 _0335_
*392 _0336_
*393 _0337_
*394 _0338_
*395 _0339_
*396 _0340_
*397 _0341_
*398 _0342_
*399 _0343_
*400 _0344_
*401 _0345_
*402 _0346_
*403 _0347_
*404 _0348_
*405 _0349_
*406 _0350_
*407 _0351_
*408 _0352_
*409 _0353_
*410 _0354_
*411 _0355_
*412 _0356_
*413 _0357_
*414 _0358_
*415 _0359_
*416 _0360_
*417 _0361_
*418 _0362_
*419 _0363_
*420 _0364_
*421 _0365_
*422 _0366_
*423 _0367_
*424 _0368_
*425 _0369_
*426 _0370_
*427 _0371_
*428 _0372_
*429 _0373_
*430 _0374_
*431 _0375_
*432 _0376_
*433 _0377_
*434 _0378_
*435 _0379_
*436 _0380_
*437 _0381_
*438 _0382_
*439 _0383_
*440 _0384_
*441 _0385_
*442 _0386_
*443 _0387_
*444 _0388_
*445 _0389_
*446 _0390_
*447 _0391_
*448 _0392_
*449 _0393_
*450 _0394_
*451 _0395_
*452 _0396_
*453 _0397_
*454 _0398_
*455 _0399_
*456 _0400_
*457 _0401_
*458 _0402_
*459 _0403_
*460 _0404_
*461 _0405_
*462 _0406_
*463 _0407_
*464 _0408_
*465 _0409_
*466 _0410_
*467 _0411_
*468 _0412_
*469 _0413_
*470 _0414_
*471 _0415_
*472 _0416_
*473 _0417_
*474 _0418_
*475 _0419_
*476 _0420_
*477 _0421_
*478 _0422_
*479 _0423_
*480 _0424_
*481 _0425_
*482 _0426_
*483 _0427_
*484 _0428_
*485 _0429_
*486 _0430_
*487 _0431_
*488 _0432_
*489 _0433_
*490 _0434_
*491 _0435_
*492 _0436_
*493 _0437_
*494 _0438_
*495 _0439_
*496 _0440_
*497 _0441_
*498 _0442_
*499 _0443_
*500 _0444_
*501 _0445_
*502 _0446_
*503 _0447_
*504 _0448_
*505 _0449_
*506 _0450_
*507 _0451_
*508 _0452_
*509 _0453_
*510 _0454_
*511 _0455_
*512 _0456_
*513 _0457_
*514 _0458_
*515 _0459_
*516 _0460_
*517 _0461_
*518 _0462_
*519 _0463_
*520 _0464_
*521 _0465_
*522 _0466_
*523 _0467_
*524 _0468_
*525 _0469_
*526 _0470_
*527 _0471_
*528 _0472_
*529 _0473_
*530 _0474_
*531 _0475_
*532 _0476_
*533 _0477_
*534 _0478_
*535 _0479_
*536 _0480_
*537 _0481_
*538 _0482_
*539 _0483_
*540 _0484_
*541 _0485_
*542 _0486_
*543 _0487_
*544 _0488_
*545 _0489_
*546 _0490_
*547 _0491_
*548 _0492_
*549 _0493_
*550 _0494_
*551 _0495_
*552 _0496_
*553 _0497_
*554 _0498_
*555 _0499_
*556 _0500_
*557 _0501_
*558 _0502_
*559 _0503_
*560 _0504_
*561 _0505_
*562 _0506_
*563 _0507_
*564 _0508_
*565 _0509_
*566 _0510_
*567 _0511_
*568 _0512_
*569 _0513_
*570 _0514_
*571 _0515_
*572 _0516_
*573 _0517_
*574 _0518_
*575 _0519_
*576 _0520_
*577 _0521_
*578 _0522_
*579 _0523_
*580 _0524_
*581 _0525_
*582 _0526_
*583 _0527_
*584 _0528_
*585 _0529_
*586 _0530_
*587 _0531_
*588 _0532_
*589 _0533_
*590 _0534_
*591 _0535_
*592 _0536_
*593 _0537_
*594 _0538_
*595 _0539_
*596 _0540_
*597 _0541_
*598 _0542_
*599 _0543_
*600 _0544_
*601 _0545_
*602 _0546_
*603 _0547_
*604 _0548_
*605 _0549_
*606 _0550_
*607 _0551_
*608 _0552_
*609 _0553_
*610 _0554_
*611 _0555_
*612 _0556_
*613 _0557_
*614 _0558_
*615 _0559_
*616 _0560_
*617 _0561_
*618 _0562_
*619 _0563_
*620 _0564_
*621 _0565_
*622 _0566_
*623 _0567_
*624 _0568_
*625 _0569_
*626 _0570_
*627 _0571_
*628 _0572_
*629 _0573_
*630 _0574_
*631 _0575_
*632 _0576_
*633 _0577_
*634 _0578_
*635 _0579_
*636 _0580_
*637 _0581_
*638 _0582_
*639 _0583_
*640 _0584_
*641 _0585_
*642 _0586_
*643 _0587_
*644 _0588_
*645 _0589_
*646 _0590_
*647 _0591_
*648 _0592_
*649 _0593_
*650 _0594_
*651 _0595_
*652 _0596_
*653 _0597_
*654 _0598_
*655 _0599_
*656 _0600_
*657 _0601_
*658 _0602_
*659 _0603_
*660 _0604_
*661 _0605_
*662 _0606_
*663 _0607_
*664 _0608_
*665 _0609_
*666 _0610_
*667 _0611_
*668 _0612_
*669 _0613_
*670 _0614_
*671 _0615_
*672 _0616_
*673 _0617_
*674 _0618_
*675 _0619_
*676 _0620_
*677 _0621_
*678 _0622_
*679 _0623_
*680 _0624_
*681 _0625_
*682 _0626_
*683 _0627_
*684 _0628_
*685 _0629_
*686 _0630_
*687 _0631_
*688 _0632_
*689 _0633_
*690 _0634_
*691 _0635_
*692 _0636_
*693 _0637_
*694 _0638_
*695 _0639_
*696 _0640_
*697 _0641_
*698 _0642_
*699 _0643_
*700 _0644_
*701 _0645_
*702 _0646_
*703 _0647_
*704 _0648_
*705 _0649_
*706 _0650_
*707 _0651_
*708 _0652_
*709 _0653_
*710 _0654_
*711 _0655_
*712 _0656_
*713 _0657_
*714 _0658_
*715 _0659_
*716 _0660_
*717 _0661_
*718 _0662_
*719 _0663_
*720 _0664_
*721 _0665_
*722 _0666_
*723 _0667_
*724 _0668_
*725 _0669_
*726 _0670_
*727 _0671_
*728 _0672_
*729 _0673_
*730 _0674_
*731 _0675_
*732 _0676_
*733 _0677_
*734 _0678_
*735 _0679_
*736 _0680_
*737 _0681_
*738 _0682_
*739 _0683_
*740 _0684_
*741 _0685_
*742 _0686_
*743 _0687_
*744 _0688_
*745 _0689_
*746 _0690_
*747 _0691_
*748 _0692_
*749 _0693_
*750 _0694_
*751 _0695_
*752 _0696_
*753 _0697_
*754 _0698_
*755 _0699_
*756 _0700_
*757 _0701_
*758 _0702_
*759 _0703_
*760 _0704_
*761 _0705_
*762 _0706_
*763 _0707_
*764 _0708_
*765 _0709_
*766 _0710_
*767 _0711_
*768 _0712_
*769 _0713_
*770 _0714_
*771 _0715_
*772 _0716_
*773 _0717_
*774 _0718_
*775 _0719_
*776 _0720_
*777 _0721_
*778 _0722_
*779 _0723_
*780 _0724_
*781 _0725_
*782 _0726_
*783 _0727_
*784 _0728_
*785 _0729_
*786 _0730_
*787 _0731_
*788 _0732_
*789 _0733_
*790 _0734_
*791 _0735_
*792 _0736_
*793 _0737_
*794 _0738_
*795 _0739_
*796 _0740_
*797 _0741_
*798 _0742_
*799 _0743_
*800 _0744_
*801 _0745_
*802 _0746_
*803 _0747_
*804 _0748_
*805 _0749_
*806 _0750_
*807 _0751_
*808 _0752_
*809 _0753_
*810 _0754_
*811 _0755_
*812 _0756_
*813 _0757_
*814 _0758_
*815 _0759_
*816 _0760_
*817 _0761_
*818 _0762_
*819 _0763_
*820 _0764_
*821 _0765_
*822 _0766_
*823 _0767_
*824 _0768_
*825 _0769_
*826 _0770_
*827 _0771_
*828 _0772_
*829 _0773_
*830 _0774_
*831 _0775_
*832 _0776_
*833 _0777_
*834 _0778_
*835 _0779_
*836 _0780_
*837 _0781_
*838 _0782_
*839 _0783_
*840 _0784_
*841 _0785_
*842 _0786_
*843 _0787_
*844 _0788_
*845 _0789_
*846 _0790_
*847 _0791_
*848 _0792_
*849 _0793_
*850 _0794_
*851 _0795_
*852 _0796_
*853 _0797_
*854 _0798_
*855 _0799_
*856 _0800_
*857 _0801_
*858 _0802_
*859 _0803_
*860 _0804_
*861 _0805_
*862 _0806_
*863 _0807_
*864 _0808_
*865 _0809_
*866 _0810_
*867 _0811_
*868 _0812_
*869 _0813_
*870 _0814_
*871 _0815_
*872 _0816_
*873 _0817_
*874 _0818_
*875 _0819_
*876 _0820_
*877 _0821_
*878 _0822_
*879 _0823_
*880 _0824_
*881 _0825_
*882 _0826_
*883 _0827_
*884 _0828_
*885 _0829_
*886 _0830_
*887 _0831_
*888 _0832_
*889 _0833_
*890 _0834_
*891 _0835_
*892 _0836_
*893 _0837_
*894 _0838_
*895 _0839_
*896 _0840_
*897 _0841_
*898 _0842_
*899 _0843_
*900 _0844_
*901 _0845_
*902 _0846_
*903 _0847_
*904 _0848_
*905 _0849_
*906 _0850_
*907 _0851_
*908 _0852_
*909 _0853_
*910 _0854_
*911 _0855_
*912 _0856_
*913 _0857_
*914 _0858_
*915 _0859_
*916 _0860_
*917 _0861_
*918 _0862_
*919 _0863_
*920 _0864_
*921 _0865_
*922 _0866_
*923 _0867_
*924 _0868_
*925 _0869_
*926 _0870_
*927 _0871_
*928 _0872_
*929 _0873_
*930 _0874_
*931 _0875_
*932 _0876_
*933 _0877_
*934 _0878_
*935 _0879_
*936 _0880_
*937 _0881_
*938 _0882_
*939 _0883_
*940 _0884_
*941 _0885_
*942 _0886_
*943 _0887_
*944 _0888_
*945 _0889_
*946 _0890_
*947 _0891_
*948 _0892_
*949 _0893_
*950 _0894_
*951 _0895_
*952 _0896_
*953 _0897_
*954 _0898_
*955 _0899_
*956 _0900_
*957 _0901_
*958 _0902_
*959 _0903_
*960 _0904_
*961 _0905_
*962 _0906_
*963 _0907_
*964 _0908_
*965 _0909_
*966 _0910_
*967 _0911_
*968 _0912_
*969 _0913_
*970 _0914_
*971 _0915_
*972 _0916_
*973 _0917_
*974 _0918_
*975 _0919_
*976 _0920_
*977 _0921_
*978 _0922_
*979 _0923_
*980 _0924_
*981 _0925_
*982 _0926_
*983 _0927_
*984 _0928_
*985 _0929_
*986 _0930_
*987 _0931_
*988 _0932_
*989 _0933_
*990 _0934_
*991 _0935_
*992 _0936_
*993 _0937_
*994 _0938_
*995 _0939_
*996 _0940_
*997 _0941_
*998 _0942_
*999 _0943_
*1000 _0944_
*1001 _0945_
*1002 _0946_
*1003 _0947_
*1004 _0948_
*1005 _0949_
*1006 _0950_
*1007 _0951_
*1008 _0952_
*1009 _0953_
*1010 _0954_
*1011 _0955_
*1012 _0956_
*1013 _0957_
*1014 _0958_
*1015 _0959_
*1016 _0960_
*1017 _0961_
*1018 _0962_
*1019 _0963_
*1020 _0964_
*1021 _0965_
*1022 _0966_
*1023 _0967_
*1024 _0968_
*1025 _0969_
*1026 _0970_
*1027 _0971_
*1028 _0972_
*1029 _0973_
*1030 _0974_
*1031 _0975_
*1032 _0976_
*1033 _0977_
*1034 _0978_
*1035 _0979_
*1036 _0980_
*1037 _0981_
*1038 _0982_
*1039 _0983_
*1040 _0984_
*1041 _0985_
*1042 _0986_
*1043 _0987_
*1044 _0988_
*1045 _0989_
*1046 _0990_
*1047 _0991_
*1048 _0992_
*1049 _0993_
*1050 _0994_
*1051 _0995_
*1052 _0996_
*1053 _0997_
*1054 _0998_
*1055 _0999_
*1056 _1000_
*1057 _1001_
*1058 _1002_
*1059 _1003_
*1060 _1004_
*1061 _1005_
*1062 _1006_
*1063 _1007_
*1064 _1008_
*1065 _1009_
*1066 _1010_
*1067 _1011_
*1068 _1012_
*1069 _1013_
*1070 _1014_
*1071 _1015_
*1072 _1016_
*1073 _1017_
*1074 _1018_
*1075 _1019_
*1076 _1020_
*1077 _1021_
*1078 _1022_
*1079 _1023_
*1080 _1024_
*1081 _1025_
*1082 _1026_
*1083 _1027_
*1084 _1028_
*1085 _1029_
*1086 _1030_
*1087 _1031_
*1088 _1032_
*1089 _1033_
*1090 _1034_
*1091 _1035_
*1092 _1036_
*1093 _1037_
*1094 _1038_
*1095 _1039_
*1096 _1040_
*1097 _1041_
*1098 _1042_
*1099 _1043_
*1100 _1044_
*1101 _1045_
*1102 _1046_
*1103 _1047_
*1104 _1048_
*1105 _1049_
*1106 _1050_
*1107 _1051_
*1108 _1052_
*1109 _1053_
*1110 _1054_
*1111 _1055_
*1112 _1056_
*1113 _1057_
*1114 _1058_
*1115 _1059_
*1116 _1060_
*1117 _1061_
*1118 _1062_
*1119 _1063_
*1120 _1064_
*1121 _1065_
*1122 _1066_
*1123 _1067_
*1124 _1068_
*1125 _1069_
*1126 _1070_
*1127 _1071_
*1128 _1072_
*1129 _1073_
*1130 _1074_
*1131 _1075_
*1132 _1076_
*1133 _1077_
*1134 _1078_
*1135 _1079_
*1136 _1080_
*1137 _1081_
*1138 _1082_
*1139 _1083_
*1140 _1084_
*1141 _1085_
*1142 _1086_
*1143 _1087_
*1144 _1088_
*1145 _1089_
*1146 _1090_
*1147 _1091_
*1148 _1092_
*1149 _1093_
*1150 _1094_
*1151 _1095_
*1152 _1096_
*1153 _1097_
*1154 _1098_
*1155 _1099_
*1156 _1100_
*1157 _1101_
*1158 _1102_
*1159 _1103_
*1160 _1104_
*1161 _1105_
*1162 _1106_
*1163 _1107_
*1164 _1108_
*1165 _1109_
*1166 _1110_
*1167 _1111_
*1168 _1112_
*1169 _1113_
*1170 _1114_
*1171 _1115_
*1172 _1116_
*1173 _1117_
*1174 _1118_
*1175 _1119_
*1176 _1120_
*1177 _1121_
*1178 _1122_
*1179 _1123_
*1180 _1124_
*1181 _1125_
*1182 _1126_
*1183 _1127_
*1184 _1128_
*1185 _1129_
*1186 _1130_
*1187 _1131_
*1188 _1132_
*1189 _1133_
*1190 _1134_
*1191 _1135_
*1192 _1136_
*1193 _1137_
*1194 _1138_
*1195 _1139_
*1196 _1140_
*1197 _1141_
*1198 _1142_
*1199 _1143_
*1200 _1144_
*1201 _1145_
*1202 _1146_
*1203 _1147_
*1204 _1148_
*1205 _1149_
*1206 _1150_
*1207 _1151_
*1208 _1152_
*1209 _1153_
*1210 _1154_
*1211 _1155_
*1212 _1156_
*1213 _1157_
*1214 _1158_
*1215 _1159_
*1216 _1160_
*1217 _1161_
*1218 _1162_
*1219 _1163_
*1220 _1164_
*1221 _1165_
*1222 _1166_
*1223 _1167_
*1224 _1168_
*1225 _1169_
*1226 _1170_
*1227 _1171_
*1228 _1172_
*1229 _1173_
*1230 _1174_
*1231 _1175_
*1232 _1176_
*1233 _1177_
*1234 _1178_
*1235 _1179_
*1236 _1180_
*1237 _1181_
*1238 _1182_
*1239 _1183_
*1240 _1184_
*1241 _1185_
*1242 _1186_
*1243 _1187_
*1244 _1188_
*1245 _1189_
*1246 _1190_
*1247 _1191_
*1248 _1192_
*1249 _1193_
*1250 _1194_
*1251 _1195_
*1252 _1196_
*1253 _1197_
*1254 _1198_
*1255 _1199_
*1256 _1200_
*1257 _1201_
*1258 _1202_
*1259 _1203_
*1260 _1204_
*1261 _1205_
*1262 _1206_
*1263 _1207_
*1264 _1208_
*1265 _1209_
*1266 _1210_
*1267 _1211_
*1268 _1212_
*1269 _1213_
*1270 _1214_
*1271 _1215_
*1272 _1216_
*1273 _1217_
*1274 _1218_
*1275 _1219_
*1276 _1220_
*1277 _1221_
*1278 _1222_
*1279 _1223_
*1280 _1224_
*1281 _1225_
*1282 _1226_
*1283 _1227_
*1284 _1228_
*1285 _1229_
*1286 _1230_
*1287 _1231_
*1288 _1232_
*1289 _1233_
*1290 _1234_
*1291 _1235_
*1292 _1236_
*1293 _1237_
*1294 _1238_
*1295 _1239_
*1296 _1240_
*1297 _1241_
*1298 _1242_
*1299 _1243_
*1300 _1244_
*1301 _1245_
*1302 _1246_
*1303 _1247_
*1304 _1248_
*1305 _1249_
*1306 _1250_
*1307 _1251_
*1308 _1252_
*1309 _1253_
*1310 _1254_
*1311 _1255_
*1312 _1256_
*1313 _1257_
*1314 _1258_
*1315 _1259_
*1316 _1260_
*1317 _1261_
*1318 _1262_
*1319 _1263_
*1320 _1264_
*1321 _1265_
*1322 _1266_
*1323 _1267_
*1324 _1268_
*1325 _1269_
*1326 _1270_
*1327 _1271_
*1328 _1272_
*1329 _1273_
*1330 _1274_
*1331 _1275_
*1332 _1276_
*1333 _1277_
*1334 _1278_
*1335 _1279_
*1336 _1280_
*1337 _1281_
*1338 _1282_
*1339 _1283_
*1340 _1284_
*1341 _1285_
*1342 _1286_
*1343 _1287_
*1344 _1288_
*1345 _1289_
*1346 _1290_
*1347 _1291_
*1348 _1292_
*1349 _1293_
*1350 _1294_
*1351 _1295_
*1352 _1296_
*1353 _1297_
*1354 _1298_
*1355 _1299_
*1356 _1300_
*1357 _1301_
*1358 _1302_
*1359 _1303_
*1360 _1304_
*1361 _1305_
*1362 _1306_
*1363 _1307_
*1364 _1308_
*1365 _1309_
*1366 _1310_
*1367 _1311_
*1368 _1312_
*1369 _1313_
*1370 _1314_
*1371 _1315_
*1372 _1316_
*1373 _1317_
*1374 _1318_
*1375 _1319_
*1376 _1320_
*1377 _1321_
*1378 _1322_
*1379 _1323_
*1380 _1324_
*1381 _1325_
*1382 _1326_
*1383 _1327_
*1384 _1328_
*1385 _1329_
*1386 _1330_
*1387 _1331_
*1388 _1332_
*1389 _1333_
*1390 _1334_
*1391 _1335_
*1392 _1336_
*1393 _1337_
*1394 _1338_
*1395 _1339_
*1396 _1340_
*1397 _1341_
*1398 _1342_
*1399 _1343_
*1400 _1344_
*1401 _1345_
*1402 _1346_
*1403 _1347_
*1404 _1348_
*1405 _1349_
*1406 _1350_
*1407 _1351_
*1408 _1352_
*1409 _1353_
*1410 _1354_
*1411 _1355_
*1412 _1356_
*1413 _1357_
*1414 _1358_
*1415 _1359_
*1416 _1360_
*1417 _1361_
*1418 _1362_
*1419 _1363_
*1420 _1364_
*1421 _1365_
*1422 _1366_
*1423 _1367_
*1424 _1368_
*1425 _1369_
*1426 _1370_
*1427 _1371_
*1428 _1372_
*1429 _1373_
*1430 _1374_
*1431 _1375_
*1432 _1376_
*1433 _1377_
*1434 _1378_
*1435 _1379_
*1436 _1380_
*1437 _1381_
*1438 _1382_
*1439 _1383_
*1440 _1384_
*1441 _1385_
*1442 _1386_
*1443 _1387_
*1444 _1388_
*1445 _1389_
*1446 _1390_
*1447 _1391_
*1448 _1392_
*1449 _1393_
*1450 _1394_
*1451 _1395_
*1452 _1396_
*1453 _1397_
*1454 _1398_
*1455 _1399_
*1456 _1400_
*1457 _1401_
*1458 _1402_
*1459 _1403_
*1460 _1404_
*1461 _1405_
*1462 _1406_
*1463 _1407_
*1464 _1408_
*1465 _1409_
*1466 _1410_
*1467 _1411_
*1468 _1412_
*1469 _1413_
*1470 _1414_
*1471 _1415_
*1472 _1416_
*1473 _1417_
*1474 _1418_
*1475 _1419_
*1476 _1420_
*1477 _1421_
*1478 _1422_
*1479 _1423_
*1480 _1424_
*1481 _1425_
*1482 _1426_
*1483 _1427_
*1484 _1428_
*1485 _1429_
*1486 _1430_
*1487 _1431_
*1488 _1432_
*1489 _1433_
*1490 _1434_
*1491 _1435_
*1492 _1436_
*1493 _1437_
*1494 _1438_
*1495 _1439_
*1496 _1440_
*1497 _1441_
*1498 _1442_
*1499 _1443_
*1500 _1444_
*1501 _1445_
*1502 _1446_
*1503 _1447_
*1504 _1448_
*1505 _1449_
*1506 _1450_
*1507 _1451_
*1508 _1452_
*1509 _1453_
*1510 _1454_
*1511 _1455_
*1512 _1456_
*1513 _1457_
*1514 _1458_
*1515 _1459_
*1516 _1460_
*1517 _1461_
*1518 _1462_
*1519 _1463_
*1520 _1464_
*1521 _1465_
*1522 _1466_
*1523 _1467_
*1524 _1468_
*1525 _1469_
*1526 _1470_
*1527 _1471_
*1528 _1472_
*1529 _1473_
*1530 _1474_
*1531 _1475_
*1532 _1476_
*1533 _1477_
*1534 _1478_
*1535 _1479_
*1536 _1480_
*1537 _1481_
*1538 _1482_
*1539 _1483_
*1540 _1484_
*1541 _1485_
*1542 _1486_
*1543 _1487_
*1544 _1488_
*1545 _1489_
*1546 _1490_
*1547 _1491_
*1548 _1492_
*1549 _1493_
*1550 _1494_
*1551 _1495_
*1552 _1496_
*1553 _1497_
*1554 _1498_
*1555 _1499_
*1556 _1500_
*1557 _1501_
*1558 _1502_
*1559 _1503_
*1560 _1504_
*1561 _1505_
*1562 _1506_
*1563 _1507_
*1564 _1508_
*1565 _1509_
*1566 _1510_
*1567 _1511_
*1568 _1512_
*1569 _1513_
*1570 _1514_
*1571 _1515_
*1572 _1516_
*1573 _1517_
*1574 _1518_
*1575 _1519_
*1576 _1520_
*1577 _1521_
*1578 _1522_
*1579 _1523_
*1580 _1524_
*1581 _1525_
*1582 _1526_
*1583 _1527_
*1584 _1528_
*1585 _1529_
*1586 _1530_
*1587 _1531_
*1588 _1532_
*1589 _1533_
*1590 _1534_
*1591 _1535_
*1592 _1536_
*1593 _1537_
*1594 _1538_
*1595 _1539_
*1596 _1540_
*1597 _1541_
*1598 _1542_
*1599 _1543_
*1600 _1544_
*1601 _1545_
*1602 _1546_
*1603 _1547_
*1604 _1548_
*1605 _1549_
*1606 _1550_
*1607 _1551_
*1608 _1552_
*1609 _1553_
*1610 _1554_
*1611 _1555_
*1612 _1556_
*1613 _1557_
*1614 _1558_
*1615 _1559_
*1616 _1560_
*1617 _1561_
*1618 _1562_
*1619 _1563_
*1620 _1564_
*1621 _1565_
*1622 _1566_
*1623 _1567_
*1624 _1568_
*1625 _1569_
*1626 _1570_
*1627 _1571_
*1628 _1572_
*1629 _1573_
*1630 _1574_
*1631 _1575_
*1632 _1576_
*1633 _1577_
*1634 _1578_
*1635 _1579_
*1636 _1580_
*1637 _1581_
*1638 _1582_
*1639 _1583_
*1640 _1584_
*1641 _1585_
*1642 _1586_
*1643 _1587_
*1644 _1588_
*1645 _1589_
*1646 _1590_
*1647 _1591_
*1648 _1592_
*1649 _1593_
*1650 _1594_
*1651 _1595_
*1652 _1596_
*1653 _1597_
*1654 _1598_
*1655 _1599_
*1656 _1600_
*1657 _1601_
*1658 _1602_
*1659 _1603_
*1660 _1604_
*1661 _1605_
*1662 _1606_
*1663 _1607_
*1664 _1608_
*1665 _1609_
*1666 _1610_
*1667 _1611_
*1668 _1612_
*1669 _1613_
*1670 _1614_
*1671 _1615_
*1672 _1616_
*1673 _1617_
*1674 _1618_
*1675 _1619_
*1676 _1620_
*1677 _1621_
*1678 _1622_
*1679 _1623_
*1680 _1624_
*1681 _1625_
*1682 _1626_
*1683 _1627_
*1684 _1628_
*1685 _1629_
*1686 _1630_
*1687 _1631_
*1688 _1632_
*1689 _1633_
*1690 _1634_
*1691 _1635_
*1692 _1636_
*1693 _1637_
*1694 _1638_
*1695 _1639_
*1696 _1640_
*1697 _1641_
*1698 _1642_
*1699 _1643_
*1700 _1644_
*1701 _1645_
*1702 _1646_
*1703 _1647_
*1704 _1648_
*1705 _1649_
*1706 _1650_
*1707 _1651_
*1708 _1652_
*1709 _1653_
*1710 _1654_
*1711 _1655_
*1712 _1656_
*1713 _1657_
*1714 _1658_
*1715 _1659_
*1716 _1660_
*1717 _1661_
*1718 _1662_
*1719 _1663_
*1720 _1664_
*1721 _1665_
*1722 _1666_
*1723 _1667_
*1724 _1668_
*1725 _1669_
*1726 _1670_
*1727 _1671_
*1728 _1672_
*1729 _1673_
*1730 _1674_
*1731 _1675_
*1732 _1676_
*1733 _1677_
*1734 _1678_
*1735 _1679_
*1736 _1680_
*1737 _1681_
*1738 _1682_
*1739 _1683_
*1740 _1684_
*1741 _1685_
*1742 _1686_
*1743 _1687_
*1744 _1688_
*1745 _1689_
*1746 _1690_
*1747 _1691_
*1748 _1692_
*1749 _1693_
*1750 _1694_
*1751 _1695_
*1752 _1696_
*1753 _1697_
*1754 _1698_
*1755 _1699_
*1756 _1700_
*1757 _1701_
*1758 _1702_
*1759 _1703_
*1760 _1704_
*1761 _1705_
*1762 _1706_
*1763 _1707_
*1764 _1708_
*1765 _1709_
*1766 _1710_
*1767 _1711_
*1768 _1712_
*1769 _1713_
*1770 _1714_
*1771 _1715_
*1772 _1716_
*1773 _1717_
*1774 _1718_
*1775 _1719_
*1776 _1720_
*1777 _1721_
*1778 _1722_
*1779 _1723_
*1780 _1724_
*1781 _1725_
*1782 _1726_
*1783 _1727_
*1784 _1728_
*1785 _1729_
*1786 _1730_
*1787 _1731_
*1788 _1732_
*1789 _1733_
*1790 _1734_
*1791 _1735_
*1792 _1736_
*1793 _1737_
*1794 _1738_
*1795 _1739_
*1796 _1740_
*1797 _1741_
*1798 _1742_
*1799 _1743_
*1800 _1744_
*1801 _1745_
*1802 _1746_
*1803 _1747_
*1804 _1748_
*1805 _1749_
*1806 _1750_
*1807 _1751_
*1808 _1752_
*1809 _1753_
*1810 _1754_
*1811 _1755_
*1812 _1756_
*1813 _1757_
*1814 _1758_
*1815 _1759_
*1816 _1760_
*1817 _1761_
*1818 _1762_
*1819 _1763_
*1820 _1764_
*1821 _1765_
*1822 _1766_
*1823 _1767_
*1824 _1768_
*1825 _1769_
*1826 _1770_
*1827 _1771_
*1828 _1772_
*1829 _1773_
*1830 _1774_
*1831 _1775_
*1832 _1776_
*1833 _1777_
*1834 _1778_
*1835 _1779_
*1836 _1780_
*1837 _1781_
*1838 _1782_
*1839 _1783_
*1840 _1784_
*1841 _1785_
*1842 _1786_
*1843 _1787_
*1844 _1788_
*1845 _1789_
*1846 _1790_
*1847 _1791_
*1848 _1792_
*1849 _1793_
*1850 _1794_
*1851 _1795_
*1852 _1796_
*1853 _1797_
*1854 _1798_
*1855 _1799_
*1856 _1800_
*1857 _1801_
*1858 _1802_
*1859 _1803_
*1860 _1804_
*1861 _1805_
*1862 _1806_
*1863 _1807_
*1864 _1808_
*1865 _1809_
*1866 _1810_
*1867 _1811_
*1868 _1812_
*1869 _1813_
*1870 _1814_
*1871 _1815_
*1872 _1816_
*1873 _1817_
*1874 _1818_
*1875 _1819_
*1876 _1820_
*1877 _1821_
*1878 _1822_
*1879 _1823_
*1880 _1824_
*1881 _1825_
*1882 _1826_
*1883 _1827_
*1884 _1828_
*1885 _1829_
*1886 _1830_
*1887 _1831_
*1888 _1832_
*1889 _1833_
*1890 _1834_
*1891 _1835_
*1892 _1836_
*1893 _1837_
*1894 _1838_
*1895 _1839_
*1896 _1840_
*1897 _1841_
*1898 _1842_
*1899 _1843_
*1900 _1844_
*1901 _1845_
*1902 _1846_
*1903 _1847_
*1904 _1848_
*1905 _1849_
*1906 _1850_
*1907 _1851_
*1908 _1852_
*1909 _1853_
*1910 _1854_
*1911 _1855_
*1912 _1856_
*1913 _1857_
*1914 _1858_
*1915 _1859_
*1916 _1860_
*1917 _1861_
*1918 _1862_
*1919 _1863_
*1920 _1864_
*1921 _1865_
*1922 _1866_
*1923 _1867_
*1924 _1868_
*1925 _1869_
*1926 _1870_
*1927 _1871_
*1928 _1872_
*1929 _1873_
*1930 _1874_
*1931 _1875_
*1932 _1876_
*1933 _1877_
*1934 _1878_
*1935 _1879_
*1936 _1880_
*1937 _1881_
*1938 _1882_
*1939 _1883_
*1940 _1884_
*1941 _1885_
*1942 _1886_
*1943 _1887_
*1944 _1888_
*1945 _1889_
*1946 _1890_
*1947 _1891_
*1948 _1892_
*1949 _1893_
*1950 _1894_
*1951 _1895_
*1952 _1896_
*1953 _1897_
*1954 _1898_
*1955 _1899_
*1956 _1900_
*1957 _1901_
*1958 _1902_
*1959 _1903_
*1960 _1904_
*1961 _1905_
*1962 _1906_
*1963 _1907_
*1964 _1908_
*1965 _1909_
*1966 _1910_
*1967 _1911_
*1968 _1912_
*1969 _1913_
*1970 _1914_
*1971 _1915_
*1972 _1916_
*1973 _1917_
*1974 _1918_
*1975 _1919_
*1976 _1920_
*1977 _1921_
*1978 _1922_
*1979 _1923_
*1980 _1924_
*1981 _1925_
*1982 _1926_
*1983 _1927_
*1984 _1928_
*1985 _1929_
*1986 _1930_
*1987 _1931_
*1988 _1932_
*1989 _1933_
*1990 _1934_
*1991 _1935_
*1992 _1936_
*1993 _1937_
*1994 _1938_
*1995 _1939_
*1996 _1940_
*1997 _1941_
*1998 _1942_
*1999 _1943_
*2000 _1944_
*2001 _1945_
*2002 _1946_
*2003 _1947_
*2004 _1948_
*2005 _1949_
*2006 _1950_
*2007 _1951_
*2008 _1952_
*2009 _1953_
*2010 _1954_
*2011 _1955_
*2012 _1956_
*2013 _1957_
*2014 _1958_
*2015 _1959_
*2016 _1960_
*2017 _1961_
*2018 _1962_
*2019 _1963_
*2020 _1964_
*2021 _1965_
*2022 _1966_
*2023 _1967_
*2024 _1968_
*2025 _1969_
*2026 _1970_
*2027 _1971_
*2028 _1972_
*2029 _1973_
*2030 _1974_
*2031 _1975_
*2032 _1976_
*2033 _1977_
*2034 _1978_
*2035 _1979_
*2036 _1980_
*2037 _1981_
*2038 _1982_
*2039 _1983_
*2040 _1984_
*2041 _1985_
*2042 _1986_
*2043 _1987_
*2044 _1988_
*2045 _1989_
*2046 _1990_
*2047 _1991_
*2048 _1992_
*2049 _1993_
*2050 _1994_
*2051 _1995_
*2052 _1996_
*2053 _1997_
*2054 _1998_
*2055 _1999_
*2056 _2000_
*2057 _2001_
*2058 _2002_
*2059 _2003_
*2060 _2004_
*2061 _2005_
*2062 _2006_
*2063 _2007_
*2064 _2008_
*2065 _2009_
*2066 _2010_
*2067 _2011_
*2068 _2012_
*2069 _2013_
*2070 _2014_
*2071 _2015_
*2072 _2016_
*2073 _2017_
*2074 _2018_
*2075 _2019_
*2076 _2020_
*2077 _2021_
*2078 _2022_
*2079 _2023_
*2080 _2024_
*2081 _2025_
*2082 _2026_
*2083 _2027_
*2084 _2028_
*2085 _2029_
*2086 _2030_
*2087 _2031_
*2088 _2032_
*2089 _2033_
*2090 _2034_
*2091 _2035_
*2092 _2036_
*2093 _2037_
*2094 _2038_
*2095 _2039_
*2096 _2040_
*2097 _2041_
*2098 _2042_
*2099 _2043_
*2100 _2044_
*2101 _2045_
*2102 _2046_
*2103 _2047_
*2104 _2048_
*2105 _2049_
*2106 _2050_
*2107 _2051_
*2108 _2052_
*2109 _2053_
*2110 _2054_
*2111 _2055_
*2112 _2056_
*2113 _2057_
*2114 _2058_
*2115 _2059_
*2116 _2060_
*2117 _2061_
*2118 _2062_
*2119 _2063_
*2120 _2064_
*2121 _2065_
*2122 _2066_
*2123 _2067_
*2124 _2068_
*2125 _2069_
*2126 _2070_
*2127 _2071_
*2128 _2072_
*2129 _2073_
*2130 _2074_
*2131 _2075_
*2132 _2076_
*2133 _2077_
*2134 _2078_
*2135 _2079_
*2136 _2080_
*2137 _2081_
*2138 _2082_
*2139 _2083_
*2140 _2084_
*2141 _2085_
*2142 _2086_
*2143 _2087_
*2144 _2088_
*2145 _2089_
*2146 _2090_
*2147 _2091_
*2148 _2092_
*2149 _2093_
*2150 _2094_
*2151 _2095_
*2152 _2096_
*2153 _2097_
*2154 _2098_
*2155 _2099_
*2156 _2100_
*2157 _2101_
*2158 _2102_
*2159 _2103_
*2160 _2104_
*2161 _2105_
*2162 _2106_
*2163 _2107_
*2164 _2108_
*2165 _2109_
*2166 _2110_
*2167 _2111_
*2168 _2112_
*2169 _2113_
*2170 _2114_
*2171 _2115_
*2172 _2116_
*2173 _2117_
*2174 _2118_
*2175 _2119_
*2176 _2120_
*2177 _2121_
*2178 _2122_
*2179 _2123_
*2180 _2124_
*2181 _2125_
*2182 _2126_
*2183 _2127_
*2184 _2128_
*2185 _2129_
*2186 _2130_
*2187 _2131_
*2188 _2132_
*2189 _2133_
*2190 _2134_
*2191 _2135_
*2192 _2136_
*2193 _2137_
*2194 _2138_
*2195 _2139_
*2196 _2140_
*2197 _2141_
*2198 _2142_
*2199 _2143_
*2200 _2144_
*2201 _2145_
*2202 _2146_
*2203 _2147_
*2204 _2148_
*2205 _2149_
*2206 _2150_
*2207 _2151_
*2208 _2152_
*2209 _2153_
*2210 _2154_
*2211 _2155_
*2212 _2156_
*2213 _2157_
*2214 _2158_
*2215 _2159_
*2216 _2160_
*2217 _2161_
*2218 _2162_
*2219 _2163_
*2220 _2164_
*2221 _2165_
*2222 _2166_
*2223 _2167_
*2224 _2168_
*2225 _2169_
*2226 _2170_
*2227 _2171_
*2228 _2172_
*2229 _2173_
*2230 _2174_
*2231 _2175_
*2232 _2176_
*2233 _2177_
*2234 _2178_
*2235 _2179_
*2236 _2180_
*2237 _2181_
*2238 _2182_
*2239 _2183_
*2240 _2184_
*2241 _2185_
*2242 _2186_
*2243 _2187_
*2244 _2188_
*2245 _2189_
*2246 _2190_
*2247 _2191_
*2248 _2192_
*2249 _2193_
*2250 _2194_
*2251 _2195_
*2252 _2196_
*2253 _2197_
*2254 _2198_
*2255 _2199_
*2256 _2200_
*2257 _2201_
*2258 _2202_
*2259 _2203_
*2260 _2204_
*2261 _2205_
*2262 _2206_
*2263 _2207_
*2264 _2208_
*2265 _2209_
*2266 _2210_
*2267 _2211_
*2268 _2212_
*2269 _2213_
*2270 _2214_
*2271 _2215_
*2272 _2216_
*2273 _2217_
*2274 _2218_
*2275 _2219_
*2276 _2220_
*2277 _2221_
*2278 _2222_
*2279 _2223_
*2280 _2224_
*2281 _2225_
*2282 _2226_
*2283 _2227_
*2284 _2228_
*2285 _2229_
*2286 _2230_
*2287 _2231_
*2288 _2232_
*2289 _2233_
*2290 _2234_
*2291 _2235_
*2292 _2236_
*2293 _2237_
*2294 _2238_
*2295 _2239_
*2296 _2240_
*2297 _2241_
*2298 _2242_
*2299 _2243_
*2300 _2244_
*2301 _2245_
*2302 _2246_
*2303 _2247_
*2304 _2248_
*2305 _2249_
*2306 _2250_
*2307 _2251_
*2308 _2252_
*2309 _2253_
*2310 _2254_
*2311 _2255_
*2312 _2256_
*2313 _2257_
*2314 _2258_
*2315 _2259_
*2316 _2260_
*2317 _2261_
*2318 _2262_
*2319 _2263_
*2320 _2264_
*2321 _2265_
*2322 _2266_
*2323 _2267_
*2324 _2268_
*2325 _2269_
*2326 _2270_
*2327 _2271_
*2328 _2272_
*2329 _2273_
*2330 _2274_
*2331 _2275_
*2332 _2276_
*2333 _2277_
*2334 _2278_
*2335 _2279_
*2336 _2280_
*2337 _2281_
*2338 _2282_
*2339 _2283_
*2340 _2284_
*2341 _2285_
*2342 _2286_
*2343 _2287_
*2344 _2288_
*2345 _2289_
*2346 _2290_
*2347 _2291_
*2348 _2292_
*2349 _2293_
*2350 _2294_
*2351 _2295_
*2352 _2296_
*2353 _2297_
*2354 _2298_
*2355 _2299_
*2356 _2300_
*2357 _2301_
*2358 _2302_
*2359 _2303_
*2360 _2304_
*2361 _2305_
*2362 _2306_
*2363 _2307_
*2364 _2308_
*2365 _2309_
*2366 _2310_
*2367 _2311_
*2368 _2312_