*SPEF "ieee 1481-1999"
*DESIGN "clarke"
*DATE "11:11:11 Fri 11 11, 1111"
*VENDOR "OpenRCX"
*PROGRAM "Parallel Extraction"
*VERSION "1.0"
*DESIGN_FLOW "NAME_SCOPE LOCAL" "PIN_CAP NONE"
*DIVIDER /
*DELIMITER :
*BUS_DELIMITER []
*T_UNIT 1 NS
*C_UNIT 1 PF
*R_UNIT 1 OHM
*L_UNIT 1 HENRY

*NAME_MAP
*3 a[0]
*4 a[10]
*5 a[11]
*6 a[12]
*7 a[13]
*8 a[14]
*9 a[15]
*10 a[16]
*11 a[17]
*12 a[1]
*13 a[2]
*14 a[3]
*15 a[4]
*16 a[5]
*17 a[6]
*18 a[7]
*19 a[8]
*20 a[9]
*21 alpha[0]
*22 alpha[10]
*23 alpha[11]
*24 alpha[12]
*25 alpha[13]
*26 alpha[14]
*27 alpha[15]
*28 alpha[16]
*29 alpha[17]
*30 alpha[1]
*31 alpha[2]
*32 alpha[3]
*33 alpha[4]
*34 alpha[5]
*35 alpha[6]
*36 alpha[7]
*37 alpha[8]
*38 alpha[9]
*39 b[0]
*40 b[10]
*41 b[11]
*42 b[12]
*43 b[13]
*44 b[14]
*45 b[15]
*46 b[16]
*47 b[17]
*48 b[1]
*49 b[2]
*50 b[3]
*51 b[4]
*52 b[5]
*53 b[6]
*54 b[7]
*55 b[8]
*56 b[9]
*57 beta[0]
*58 beta[10]
*59 beta[11]
*60 beta[12]
*61 beta[13]
*62 beta[14]
*63 beta[15]
*64 beta[16]
*65 beta[17]
*66 beta[1]
*67 beta[2]
*68 beta[3]
*69 beta[4]
*70 beta[5]
*71 beta[6]
*72 beta[7]
*73 beta[8]
*74 beta[9]
*75 clk
*76 done
*77 rstb
*78 start
*79 _0000_
*80 _0001_
*81 _0002_
*82 _0003_
*83 _0004_
*84 _0005_
*85 _0006_
*86 _0007_
*87 _0008_
*88 _0009_
*89 _0010_
*90 _0011_
*91 _0012_
*92 _0013_
*93 _0014_
*94 _0015_
*95 _0016_
*96 _0017_
*97 _0018_
*98 _0019_
*99 _0020_
*100 _0021_
*101 _0022_
*102 _0023_
*103 _0024_
*104 _0025_
*105 _0026_
*106 _0027_
*107 _0028_
*108 _0029_
*109 _0030_
*110 _0031_
*111 _0032_
*112 _0033_
*113 _0034_
*114 _0035_
*115 _0036_
*116 _0037_
*117 _0038_
*118 _0039_
*119 _0040_
*120 _0041_
*121 _0042_
*122 _0043_
*123 _0044_
*124 _0045_
*125 _0046_
*126 _0047_
*127 _0048_
*128 _0049_
*129 _0050_
*130 _0051_
*131 _0052_
*132 _0053_
*133 _0054_
*134 _0055_
*135 _0056_
*136 _0057_
*137 _0058_
*138 _0059_
*139 _0060_
*140 _0061_
*141 _0062_
*142 _0063_
*143 _0064_
*144 _0065_
*145 _0066_
*146 _0067_
*147 _0068_
*148 _0069_
*149 _0070_
*150 _0071_
*151 _0072_
*152 _0073_
*153 _0074_
*154 _0075_
*155 _0076_
*156 _0077_
*157 _0078_
*158 _0079_
*159 _0080_
*160 _0081_
*161 _0082_
*162 _0083_
*163 _0084_
*164 _0085_
*165 _0086_
*166 _0087_
*167 _0088_
*168 _0089_
*169 _0090_
*170 _0091_
*171 _0092_
*172 _0093_
*173 _0094_
*174 _0095_
*175 _0096_
*176 _0097_
*177 _0098_
*178 _0099_
*179 _0100_
*180 _0101_
*181 _0102_
*182 _0103_
*183 _0104_
*184 _0105_
*185 _0106_
*186 _0107_
*187 _0108_
*188 _0109_
*189 _0110_
*190 _0111_
*191 _0112_
*192 _0113_
*193 _0114_
*194 _0115_
*195 _0116_
*196 _0117_
*197 _0118_
*198 _0119_
*199 _0120_
*200 _0121_
*201 _0122_
*202 _0123_
*203 _0124_
*204 _0125_
*205 _0126_
*206 _0127_
*207 _0128_
*208 _0129_
*209 _0130_
*210 _0131_
*211 _0132_
*212 _0133_
*213 _0134_
*214 _0135_
*215 _0136_
*216 _0137_
*217 _0138_
*218 _0139_
*219 _0140_
*220 _0141_
*221 _0142_
*222 _0143_
*223 _0144_
*224 _0145_
*225 _0146_
*226 _0147_
*227 _0148_
*228 _0149_
*229 _0150_
*230 _0151_
*231 _0152_
*232 _0153_
*233 _0154_
*234 _0155_
*235 _0156_
*236 _0157_
*237 _0158_
*238 _0159_
*239 _0160_
*240 _0161_
*241 _0162_
*242 _0163_
*243 _0164_
*244 _0165_
*245 _0166_
*246 _0167_
*247 _0168_
*248 _0169_
*249 _0170_
*250 _0171_
*251 _0172_
*252 _0173_
*253 _0174_
*254 _0175_
*255 _0176_
*256 _0177_
*257 _0178_
*258 _0179_
*259 _0180_
*260 _0181_
*261 _0182_
*262 _0183_
*263 _0184_
*264 _0185_
*265 _0186_
*266 _0187_
*267 _0188_
*268 _0189_
*269 _0190_
*270 _0191_
*271 _0192_
*272 _0193_
*273 _0194_
*274 _0195_
*275 _0196_
*276 _0197_
*277 _0198_
*278 _0199_
*279 _0200_
*280 _0201_
*281 _0202_
*282 _0203_
*283 _0204_
*284 _0205_
*285 _0206_
*286 _0207_
*287 _0208_
*288 _0209_
*289 _0210_
*290 _0211_
*291 _0212_
*292 _0213_
*293 _0214_
*294 _0215_
*295 _0216_
*296 _0217_
*297 _0218_
*298 _0219_
*299 _0220_
*300 _0221_
*301 _0222_
*302 _0223_
*303 _0224_
*304 _0225_
*305 _0226_
*306 _0227_
*307 _0228_
*308 _0229_
*309 _0230_
*310 _0231_
*311 _0232_
*312 _0233_
*313 _0234_
*314 _0235_
*315 _0236_
*316 _0237_
*317 _0238_
*318 _0239_
*319 _0240_
*320 _0241_
*321 _0242_
*322 _0243_
*323 _0244_
*324 _0245_
*325 _0246_
*326 _0247_
*327 _0248_
*328 _0249_
*329 _0250_
*330 _0251_
*331 _0252_
*332 _0253_
*333 _0254_
*334 _0255_
*335 _0256_
*336 _0257_
*337 _0258_
*338 _0259_
*339 _0260_
*340 _0261_
*341 _0262_
*342 _0263_
*343 _0264_
*344 _0265_
*345 _0266_
*346 _0267_
*347 _0268_
*348 _0269_
*349 _0270_
*350 _0271_
*351 _0272_
*352 _0273_
*353 _0274_
*354 _0275_
*355 _0276_
*356 _0277_
*357 _0278_
*358 _0279_
*359 _0280_
*360 _0281_
*361 _0282_
*362 _0283_
*363 _0284_
*364 _0285_
*365 _0286_
*366 _0287_
*367 _0288_
*368 _0289_
*369 _0290_
*370 _0291_
*371 _0292_
*372 _0293_
*373 _0294_
*374 _0295_
*375 _0296_
*376 _0297_
*377 _0298_
*378 _0299_
*379 _0300_
*380 _0301_
*381 _0302_
*382 _0303_
*383 _0304_
*384 _0305_
*385 _0306_
*386 _0307_
*387 _0308_
*388 _0309_
*389 _0310_
*390 _0311_
*391 _0312_
*392 _0313_
*393 _0314_
*394 _0315_
*395 _0316_
*396 _0317_
*397 _0318_
*398 _0319_
*399 _0320_
*400 _0321_
*401 _0322_
*402 _0323_
*403 _0324_
*404 _0325_
*405 _0326_
*406 _0327_
*407 _0328_
*408 _0329_
*409 _0330_
*410 _0331_
*411 _0332_
*412 _0333_
*413 _0334_
*414 _0335_
*415 _0336_
*416 _0337_
*417 _0338_
*418 _0339_
*419 _0340_
*420 _0341_
*421 _0342_
*422 _0343_
*423 _0344_
*424 _0345_
*425 _0346_
*426 _0347_
*427 _0348_
*428 _0349_
*429 _0350_
*430 _0351_
*431 _0352_
*432 _0353_
*433 _0354_
*434 _0355_
*435 _0356_
*436 _0357_
*437 _0358_
*438 _0359_
*439 _0360_
*440 _0361_
*441 _0362_
*442 _0363_
*443 _0364_
*444 _0365_
*445 _0366_
*446 _0367_
*447 _0368_
*448 _0369_
*449 _0370_
*450 _0371_
*451 _0372_
*452 _0373_
*453 _0374_
*454 _0375_
*455 _0376_
*456 _0377_
*457 _0378_
*458 _0379_
*459 _0380_
*460 _0381_
*461 _0382_
*462 _0383_
*463 _0384_
*464 _0385_
*465 _0386_
*466 _0387_
*467 _0388_
*468 _0389_
*469 _0390_
*470 _0391_
*471 _0392_
*472 _0393_
*473 _0394_
*474 _0395_
*475 _0396_
*476 _0397_
*477 _0398_
*478 _0399_
*479 _0400_
*480 _0401_
*481 _0402_
*482 _0403_
*483 _0404_
*484 _0405_
*485 _0406_
*486 _0407_
*487 _0408_
*488 _0409_
*489 _0410_
*490 _0411_
*491 _0412_
*492 _0413_
*493 _0414_
*494 _0415_
*495 _0416_
*496 _0417_
*497 _0418_
*498 _0419_
*499 _0420_
*500 _0421_
*501 _0422_
*502 _0423_
*503 _0424_
*504 _0425_
*505 _0426_
*506 _0427_
*507 _0428_
*508 _0429_
*509 _0430_
*510 _0431_
*511 _0432_
*512 _0433_
*513 _0434_
*514 _0435_
*515 _0436_
*516 _0437_
*517 _0438_
*518 _0439_
*519 _0440_
*520 _0441_
*521 _0442_
*522 _0443_
*523 _0444_
*524 _0445_
*525 _0446_
*526 _0447_
*527 _0448_
*528 _0449_
*529 _0450_
*530 _0451_
*531 _0452_
*532 _0453_
*533 _0454_
*534 _0455_
*535 _0456_
*536 _0457_
*537 _0458_
*538 _0459_
*539 _0460_
*540 _0461_
*541 _0462_
*542 _0463_
*543 _0464_
*544 _0465_
*545 _0466_
*546 _0467_
*547 _0468_
*548 _0469_
*549 _0470_
*550 _0471_
*551 _0472_
*552 _0473_
*553 _0474_
*554 _0475_
*555 _0476_
*556 _0477_
*557 _0478_
*558 _0479_
*559 _0480_
*560 _0481_
*561 _0482_
*562 _0483_
*563 _0484_
*564 _0485_
*565 _0486_
*566 _0487_
*567 _0488_
*568 _0489_
*569 _0490_
*570 _0491_
*571 _0492_
*572 _0493_
*573 _0494_
*574 _0495_
*575 _0496_
*576 _0497_
*577 _0498_
*578 _0499_
*579 _0500_
*580 _0501_
*581 _0502_
*582 _0503_
*583 _0504_
*584 _0505_
*585 _0506_
*586 _0507_
*587 _0508_
*588 _0509_
*589 _0510_
*590 _0511_
*591 _0512_
*592 _0513_
*593 _0514_
*594 _0515_
*595 _0516_
*596 _0517_
*597 _0518_
*598 _0519_
*599 _0520_
*600 _0521_
*601 _0522_
*602 _0523_
*603 _0524_
*604 _0525_
*605 _0526_
*606 _0527_
*607 _0528_
*608 _0529_
*609 _0530_
*610 _0531_
*611 _0532_
*612 _0533_
*613 _0534_
*614 _0535_
*615 _0536_
*616 _0537_
*617 _0538_
*618 _0539_
*619 _0540_
*620 _0541_
*621 _0542_
*622 _0543_
*623 _0544_
*624 _0545_
*625 _0546_
*626 _0547_
*627 _0548_
*628 _0549_
*629 _0550_
*630 _0551_
*631 _0552_
*632 _0553_
*633 _0554_
*634 _0555_
*635 _0556_
*636 _0557_
*637 _0558_
*638 _0559_
*639 _0560_
*640 _0561_
*641 _0562_
*642 _0563_
*643 _0564_
*644 _0565_
*645 _0566_
*646 _0567_
*647 _0568_
*648 _0569_
*649 _0570_
*650 _0571_
*651 _0572_
*652 _0573_
*653 _0574_
*654 _0575_
*655 _0576_
*656 _0577_
*657 _0578_
*658 _0579_
*659 _0580_
*660 _0581_
*661 _0582_
*662 _0583_
*663 _0584_
*664 _0585_
*665 _0586_
*666 _0587_
*667 _0588_
*668 _0589_
*669 _0590_
*670 _0591_
*671 _0592_
*672 _0593_
*673 _0594_
*674 _0595_
*675 _0596_
*676 _0597_
*677 _0598_
*678 _0599_
*679 _0600_
*680 _0601_
*681 _0602_
*682 _0603_
*683 _0604_
*684 _0605_
*685 _0606_
*686 _0607_
*687 _0608_
*688 _0609_
*689 _0610_
*690 _0611_
*691 _0612_
*692 _0613_
*693 _0614_
*694 _0615_
*695 _0616_
*696 _0617_
*697 _0618_
*698 _0619_
*699 _0620_
*700 _0621_
*701 _0622_
*702 _0623_
*703 _0624_
*704 _0625_
*705 _0626_
*706 _0627_
*707 _0628_
*708 _0629_
*709 _0630_
*710 _0631_
*711 _0632_
*712 _0633_
*713 _0634_
*714 _0635_
*715 _0636_
*716 _0637_
*717 _0638_
*718 _0639_
*719 _0640_
*720 _0641_
*721 _0642_
*722 _0643_
*723 _0644_
*724 _0645_
*725 _0646_
*726 _0647_
*727 _0648_
*728 _0649_
*729 _0650_
*730 _0651_
*731 _0652_
*732 _0653_
*733 _0654_
*734 _0655_
*735 _0656_
*736 _0657_
*737 _0658_
*738 _0659_
*739 _0660_
*740 _0661_
*741 _0662_
*742 _0663_
*743 _0664_
*744 _0665_
*745 _0666_
*746 _0667_
*747 _0668_
*748 _0669_
*749 _0670_
*750 _0671_
*751 _0672_
*752 _0673_
*753 _0674_
*754 _0675_
*755 _0676_
*756 _0677_
*757 _0678_
*758 _0679_
*759 _0680_
*760 _0681_
*761 _0682_
*762 _0683_
*763 _0684_
*764 _0685_
*765 _0686_
*766 _0687_
*767 _0688_
*768 _0689_
*769 _0690_
*770 _0691_
*771 _0692_
*772 _0693_
*773 _0694_
*774 _0695_
*775 _0696_
*776 _0697_
*777 _0698_
*778 _0699_
*779 _0700_
*780 _0701_
*781 _0702_
*782 _0703_
*783 _0704_
*784 _0705_
*785 _0706_
*786 _0707_
*787 _0708_
*788 _0709_
*789 _0710_
*790 _0711_
*791 _0712_
*792 _0713_
*793 _0714_
*794 _0715_
*795 _0716_
*796 _0717_
*797 _0718_
*798 _0719_
*799 _0720_
*800 _0721_
*801 _0722_
*802 _0723_
*803 _0724_
*804 _0725_
*805 _0726_
*806 _0727_
*807 _0728_
*808 _0729_
*809 _0730_
*810 _0731_
*811 _0732_
*812 _0733_
*813 _0734_
*814 _0735_
*815 _0736_
*816 _0737_
*817 _0738_
*818 _0739_
*819 _0740_
*820 _0741_
*821 _0742_
*822 _0743_
*823 _0744_
*824 _0745_
*825 _0746_
*826 _0747_
*827 _0748_
*828 _0749_
*829 _0750_
*830 _0751_
*831 _0752_
*832 _0753_
*833 _0754_
*834 _0755_
*835 _0756_
*836 _0757_
*837 _0758_
*838 _0759_
*839 _0760_
*840 _0761_
*841 _0762_
*842 _0763_
*843 _0764_
*844 _0765_
*845 _0766_
*846 _0767_
*847 _0768_
*848 _0769_
*849 _0770_
*850 _0771_
*851 _0772_
*852 _0773_
*853 _0774_
*854 _0775_
*855 _0776_
*856 _0777_
*857 _0778_
*858 _0779_
*859 _0780_
*860 _0781_
*861 _0782_
*862 _0783_
*863 _0784_
*864 _0785_
*865 _0786_
*866 _0787_
*867 _0788_
*868 _0789_
*869 _0790_
*870 _0791_
*871 _0792_
*872 _0793_
*873 _0794_
*874 _0795_
*875 _0796_
*876 _0797_
*877 _0798_
*878 _0799_
*879 _0800_
*880 _0801_
*881 _0802_
*882 _0803_
*883 _0804_
*884 _0805_
*885 _0806_
*886 _0807_
*887 _0808_
*888 _0809_
*889 _0810_
*890 _0811_
*891 _0812_
*892 _0813_
*893 _0814_
*894 _0815_
*895 _0816_
*896 _0817_
*897 _0818_
*898 _0819_
*899 _0820_
*900 _0821_
*901 _0822_
*902 _0823_
*903 _0824_
*904 _0825_
*905 _0826_
*906 _0827_
*907 _0828_
*908 _0829_
*909 _0830_
*910 _0831_
*911 _0832_
*912 _0833_
*913 _0834_
*914 _0835_
*915 _0836_
*916 _0837_
*917 _0838_
*918 _0839_
*919 _0840_
*920 _0841_
*921 _0842_
*922 _0843_
*923 _0844_
*924 _0845_
*925 _0846_
*926 _0847_
*927 _0848_
*928 _0849_
*929 _0850_
*930 _0851_
*931 _0852_
*932 _0853_
*933 _0854_
*934 _0855_
*935 _0856_
*936 _0857_
*937 _0858_
*938 _0859_
*939 _0860_
*940 _0861_
*941 _0862_
*942 _0863_
*943 _0864_
*944 _0865_
*945 _0866_
*946 _0867_
*947 _0868_
*948 _0869_
*949 _0870_
*950 _0871_
*951 _0872_
*952 _0873_
*953 _0874_
*954 _0875_
*955 _0876_
*956 _0877_
*957 _0878_
*958 _0879_
*959 _0880_
*960 _0881_
*961 _0882_
*962 _0883_
*963 _0884_
*964 _0885_
*965 _0886_
*966 _0887_
*967 _0888_
*968 _0889_
*969 _0890_
*970 _0891_
*971 _0892_
*972 _0893_
*973 _0894_
*974 _0895_
*975 _0896_
*976 _0897_
*977 _0898_
*978 _0899_
*979 _0900_
*980 _0901_
*981 _0902_
*982 _0903_
*983 _0904_
*984 _0905_
*985 _0906_
*986 _0907_
*987 _0908_
*988 _0909_
*989 _0910_
*990 _0911_
*991 _0912_
*992 _0913_
*993 _0914_
*994 _0915_
*995 _0916_
*996 _0917_
*997 _0918_
*998 _0919_
*999 _0920_
*1000 _0921_
*1001 _0922_
*1002 _0923_
*1003 _0924_
*1004 _0925_
*1005 _0926_
*1006 _0927_
*1007 _0928_
*1008 _0929_
*1009 _0930_
*1010 _0931_
*1011 _0932_
*1012 _0933_
*1013 _0934_
*1014 _0935_
*1015 _0936_
*1016 _0937_
*1017 _0938_
*1018 _0939_
*1019 _0940_
*1020 _0941_
*1021 _0942_
*1022 _0943_
*1023 _0944_
*1024 _0945_
*1025 _0946_
*1026 _0947_
*1027 _0948_
*1028 _0949_
*1029 _0950_
*1030 _0951_
*1031 _0952_
*1032 _0953_
*1033 _0954_
*1034 _0955_
*1035 _0956_
*1036 _0957_
*1037 _0958_
*1038 _0959_
*1039 _0960_
*1040 _0961_
*1041 _0962_
*1042 _0963_
*1043 _0964_
*1044 _0965_
*1045 _0966_
*1046 _0967_
*1047 _0968_
*1048 _0969_
*1049 _0970_
*1050 _0971_
*1051 _0972_
*1052 _0973_
*1053 _0974_
*1054 _0975_
*1055 _0976_
*1056 _0977_
*1057 _0978_
*1058 _0979_
*1059 _0980_
*1060 _0981_
*1061 _0982_
*1062 _0983_
*1063 _0984_
*1064 _0985_
*1065 clknet_0_clk
*1066 clknet_2_0__leaf_clk
*1067 clknet_2_1__leaf_clk
*1068 clknet_2_2__leaf_clk
*1069 clknet_2_3__leaf_clk
*1070 net1
*1071 net10
*1072 net100
*1073 net101
*1074 net102
*1075 net103
*1076 net104
*1077 net105
*1078 net106
*1079 net107
*1080 net108
*1081 net109
*1082 net11
*1083 net110
*1084 net111
*1085 net112
*1086 net113
*1087 net114
*1088 net115
*1089 net116
*1090 net117
*1091 net118
*1092 net119
*1093 net12
*1094 net120
*1095 net121
*1096 net122
*1097 net123
*1098 net124
*1099 net125
*1100 net126
*1101 net127
*1102 net128
*1103 net129
*1104 net13
*1105 net130
*1106 net131
*1107 net132
*1108 net133
*1109 net134
*1110 net135
*1111 net136
*1112 net137
*1113 net138
*1114 net14
*1115 net15
*1116 net16
*1117 net17
*1118 net18
*1119 net19
*1120 net2
*1121 net20
*1122 net21
*1123 net22
*1124 net23
*1125 net24
*1126 net25
*1127 net26
*1128 net27
*1129 net28
*1130 net29
*1131 net3
*1132 net30
*1133 net31
*1134 net32
*1135 net33
*1136 net34
*1137 net35
*1138 net36
*1139 net37
*1140 net38
*1141 net39
*1142 net4
*1143 net40
*1144 net41
*1145 net42
*1146 net43
*1147 net44
*1148 net45
*1149 net46
*1150 net47
*1151 net48
*1152 net49
*1153 net5
*1154 net50
*1155 net51
*1156 net52
*1157 net53
*1158 net54
*1159 net55
*1160 net56
*1161 net57
*1162 net58
*1163 net59
*1164 net6
*1165 net60
*1166 net61
*1167 net62
*1168 net63
*1169 net64
*1170 net65
*1171 net66
*1172 net67
*1173 net68
*1174 net69
*1175 net7
*1176 net70
*1177 net71
*1178 net72
*1179 net73
*1180 net74
*1181 net75
*1182 net76
*1183 net77
*1184 net78
*1185 net79
*1186 net8
*1187 net80
*1188 net81
*1189 net82
*1190 net83
*1191 net84
*1192 net85
*1193 net86
*1194 net87
*1195 net88
*1196 net89
*1197 net9
*1198 net90
*1199 net91
*1200 net92
*1201 net93
*1202 net94
*1203 net95
*1204 net96
*1205 net97
*1206 net98
*1207 net99
*1208 FILLER_0_0_100
*1209 FILLER_0_0_11
*1210 FILLER_0_0_110
*1211 FILLER_0_0_124
*1212 FILLER_0_0_139
*1213 FILLER_0_0_166
*1214 FILLER_0_0_184
*1215 FILLER_0_0_19
*1216 FILLER_0_0_195
*1217 FILLER_0_0_197
*1218 FILLER_0_0_205
*1219 FILLER_0_0_213
*1220 FILLER_0_0_217
*1221 FILLER_0_0_244
*1222 FILLER_0_0_253
*1223 FILLER_0_0_262
*1224 FILLER_0_0_270
*1225 FILLER_0_0_278
*1226 FILLER_0_0_287
*1227 FILLER_0_0_295
*1228 FILLER_0_0_3
*1229 FILLER_0_0_301
*1230 FILLER_0_0_57
*1231 FILLER_0_0_70
*1232 FILLER_0_0_77
*1233 FILLER_0_10_100
*1234 FILLER_0_10_108
*1235 FILLER_0_10_114
*1236 FILLER_0_10_121
*1237 FILLER_0_10_129
*1238 FILLER_0_10_133
*1239 FILLER_0_10_141
*1240 FILLER_0_10_181
*1241 FILLER_0_10_194
*1242 FILLER_0_10_205
*1243 FILLER_0_10_213
*1244 FILLER_0_10_219
*1245 FILLER_0_10_233
*1246 FILLER_0_10_241
*1247 FILLER_0_10_249
*1248 FILLER_0_10_264
*1249 FILLER_0_10_270
*1250 FILLER_0_10_275
*1251 FILLER_0_10_281
*1252 FILLER_0_10_290
*1253 FILLER_0_10_32
*1254 FILLER_0_10_53
*1255 FILLER_0_10_62
*1256 FILLER_0_10_70
*1257 FILLER_0_10_78
*1258 FILLER_0_10_85
*1259 FILLER_0_10_92
*1260 FILLER_0_11_102
*1261 FILLER_0_11_113
*1262 FILLER_0_11_134
*1263 FILLER_0_11_151
*1264 FILLER_0_11_167
*1265 FILLER_0_11_169
*1266 FILLER_0_11_173
*1267 FILLER_0_11_196
*1268 FILLER_0_11_207
*1269 FILLER_0_11_218
*1270 FILLER_0_11_225
*1271 FILLER_0_11_23
*1272 FILLER_0_11_233
*1273 FILLER_0_11_239
*1274 FILLER_0_11_247
*1275 FILLER_0_11_255
*1276 FILLER_0_11_263
*1277 FILLER_0_11_274
*1278 FILLER_0_11_281
*1279 FILLER_0_11_31
*1280 FILLER_0_11_37
*1281 FILLER_0_11_57
*1282 FILLER_0_11_73
*1283 FILLER_0_11_79
*1284 FILLER_0_11_91
*1285 FILLER_0_12_107
*1286 FILLER_0_12_119
*1287 FILLER_0_12_123
*1288 FILLER_0_12_131
*1289 FILLER_0_12_139
*1290 FILLER_0_12_141
*1291 FILLER_0_12_149
*1292 FILLER_0_12_162
*1293 FILLER_0_12_177
*1294 FILLER_0_12_184
*1295 FILLER_0_12_195
*1296 FILLER_0_12_197
*1297 FILLER_0_12_205
*1298 FILLER_0_12_213
*1299 FILLER_0_12_223
*1300 FILLER_0_12_243
*1301 FILLER_0_12_25
*1302 FILLER_0_12_251
*1303 FILLER_0_12_259
*1304 FILLER_0_12_267
*1305 FILLER_0_12_275
*1306 FILLER_0_12_283
*1307 FILLER_0_12_29
*1308 FILLER_0_12_3
*1309 FILLER_0_12_33
*1310 FILLER_0_12_51
*1311 FILLER_0_12_57
*1312 FILLER_0_12_80
*1313 FILLER_0_12_85
*1314 FILLER_0_13_106
*1315 FILLER_0_13_126
*1316 FILLER_0_13_135
*1317 FILLER_0_13_143
*1318 FILLER_0_13_158
*1319 FILLER_0_13_166
*1320 FILLER_0_13_202
*1321 FILLER_0_13_210
*1322 FILLER_0_13_219
*1323 FILLER_0_13_223
*1324 FILLER_0_13_232
*1325 FILLER_0_13_240
*1326 FILLER_0_13_248
*1327 FILLER_0_13_258
*1328 FILLER_0_13_274
*1329 FILLER_0_13_281
*1330 FILLER_0_13_289
*1331 FILLER_0_13_297
*1332 FILLER_0_13_3
*1333 FILLER_0_13_301
*1334 FILLER_0_13_35
*1335 FILLER_0_13_39
*1336 FILLER_0_13_53
*1337 FILLER_0_13_57
*1338 FILLER_0_13_70
*1339 FILLER_0_13_74
*1340 FILLER_0_13_89
*1341 FILLER_0_13_97
*1342 FILLER_0_14_105
*1343 FILLER_0_14_113
*1344 FILLER_0_14_121
*1345 FILLER_0_14_138
*1346 FILLER_0_14_155
*1347 FILLER_0_14_163
*1348 FILLER_0_14_171
*1349 FILLER_0_14_179
*1350 FILLER_0_14_18
*1351 FILLER_0_14_187
*1352 FILLER_0_14_195
*1353 FILLER_0_14_221
*1354 FILLER_0_14_229
*1355 FILLER_0_14_237
*1356 FILLER_0_14_251
*1357 FILLER_0_14_258
*1358 FILLER_0_14_26
*1359 FILLER_0_14_266
*1360 FILLER_0_14_274
*1361 FILLER_0_14_282
*1362 FILLER_0_14_29
*1363 FILLER_0_14_290
*1364 FILLER_0_14_37
*1365 FILLER_0_14_76
*1366 FILLER_0_15_113
*1367 FILLER_0_15_121
*1368 FILLER_0_15_129
*1369 FILLER_0_15_142
*1370 FILLER_0_15_154
*1371 FILLER_0_15_16
*1372 FILLER_0_15_162
*1373 FILLER_0_15_169
*1374 FILLER_0_15_179
*1375 FILLER_0_15_187
*1376 FILLER_0_15_198
*1377 FILLER_0_15_206
*1378 FILLER_0_15_214
*1379 FILLER_0_15_222
*1380 FILLER_0_15_225
*1381 FILLER_0_15_25
*1382 FILLER_0_15_251
*1383 FILLER_0_15_262
*1384 FILLER_0_15_277
*1385 FILLER_0_15_281
*1386 FILLER_0_15_292
*1387 FILLER_0_15_3
*1388 FILLER_0_15_36
*1389 FILLER_0_15_44
*1390 FILLER_0_15_52
*1391 FILLER_0_15_57
*1392 FILLER_0_15_74
*1393 FILLER_0_15_95
*1394 FILLER_0_16_106
*1395 FILLER_0_16_122
*1396 FILLER_0_16_126
*1397 FILLER_0_16_132
*1398 FILLER_0_16_141
*1399 FILLER_0_16_191
*1400 FILLER_0_16_226
*1401 FILLER_0_16_23
*1402 FILLER_0_16_234
*1403 FILLER_0_16_242
*1404 FILLER_0_16_247
*1405 FILLER_0_16_251
*1406 FILLER_0_16_253
*1407 FILLER_0_16_261
*1408 FILLER_0_16_267
*1409 FILLER_0_16_27
*1410 FILLER_0_16_272
*1411 FILLER_0_16_280
*1412 FILLER_0_16_29
*1413 FILLER_0_16_36
*1414 FILLER_0_16_44
*1415 FILLER_0_16_52
*1416 FILLER_0_16_60
*1417 FILLER_0_16_68
*1418 FILLER_0_16_76
*1419 FILLER_0_16_88
*1420 FILLER_0_16_98
*1421 FILLER_0_17_106
*1422 FILLER_0_17_137
*1423 FILLER_0_17_145
*1424 FILLER_0_17_153
*1425 FILLER_0_17_162
*1426 FILLER_0_17_169
*1427 FILLER_0_17_177
*1428 FILLER_0_17_185
*1429 FILLER_0_17_199
*1430 FILLER_0_17_215
*1431 FILLER_0_17_219
*1432 FILLER_0_17_223
*1433 FILLER_0_17_225
*1434 FILLER_0_17_238
*1435 FILLER_0_17_244
*1436 FILLER_0_17_248
*1437 FILLER_0_17_25
*1438 FILLER_0_17_256
*1439 FILLER_0_17_277
*1440 FILLER_0_17_281
*1441 FILLER_0_17_293
*1442 FILLER_0_17_301
*1443 FILLER_0_17_49
*1444 FILLER_0_17_62
*1445 FILLER_0_17_79
*1446 FILLER_0_17_85
*1447 FILLER_0_17_9
*1448 FILLER_0_18_106
*1449 FILLER_0_18_11
*1450 FILLER_0_18_114
*1451 FILLER_0_18_118
*1452 FILLER_0_18_124
*1453 FILLER_0_18_130
*1454 FILLER_0_18_138
*1455 FILLER_0_18_141
*1456 FILLER_0_18_149
*1457 FILLER_0_18_161
*1458 FILLER_0_18_169
*1459 FILLER_0_18_173
*1460 FILLER_0_18_184
*1461 FILLER_0_18_19
*1462 FILLER_0_18_192
*1463 FILLER_0_18_197
*1464 FILLER_0_18_205
*1465 FILLER_0_18_213
*1466 FILLER_0_18_221
*1467 FILLER_0_18_229
*1468 FILLER_0_18_237
*1469 FILLER_0_18_246
*1470 FILLER_0_18_251
*1471 FILLER_0_18_261
*1472 FILLER_0_18_269
*1473 FILLER_0_18_27
*1474 FILLER_0_18_276
*1475 FILLER_0_18_285
*1476 FILLER_0_18_293
*1477 FILLER_0_18_3
*1478 FILLER_0_18_301
*1479 FILLER_0_18_36
*1480 FILLER_0_18_44
*1481 FILLER_0_18_66
*1482 FILLER_0_18_85
*1483 FILLER_0_18_98
*1484 FILLER_0_19_100
*1485 FILLER_0_19_105
*1486 FILLER_0_19_111
*1487 FILLER_0_19_146
*1488 FILLER_0_19_161
*1489 FILLER_0_19_167
*1490 FILLER_0_19_182
*1491 FILLER_0_19_199
*1492 FILLER_0_19_208
*1493 FILLER_0_19_215
*1494 FILLER_0_19_23
*1495 FILLER_0_19_245
*1496 FILLER_0_19_253
*1497 FILLER_0_19_261
*1498 FILLER_0_19_275
*1499 FILLER_0_19_279
*1500 FILLER_0_19_287
*1501 FILLER_0_19_295
*1502 FILLER_0_19_301
*1503 FILLER_0_19_43
*1504 FILLER_0_19_61
*1505 FILLER_0_19_69
*1506 FILLER_0_19_85
*1507 FILLER_0_19_94
*1508 FILLER_0_1_108
*1509 FILLER_0_1_113
*1510 FILLER_0_1_135
*1511 FILLER_0_1_14
*1512 FILLER_0_1_146
*1513 FILLER_0_1_160
*1514 FILLER_0_1_172
*1515 FILLER_0_1_183
*1516 FILLER_0_1_192
*1517 FILLER_0_1_201
*1518 FILLER_0_1_216
*1519 FILLER_0_1_22
*1520 FILLER_0_1_279
*1521 FILLER_0_1_281
*1522 FILLER_0_1_289
*1523 FILLER_0_1_297
*1524 FILLER_0_1_54
*1525 FILLER_0_1_6
*1526 FILLER_0_1_66
*1527 FILLER_0_20_110
*1528 FILLER_0_20_117
*1529 FILLER_0_20_121
*1530 FILLER_0_20_125
*1531 FILLER_0_20_129
*1532 FILLER_0_20_15
*1533 FILLER_0_20_158
*1534 FILLER_0_20_166
*1535 FILLER_0_20_174
*1536 FILLER_0_20_195
*1537 FILLER_0_20_197
*1538 FILLER_0_20_251
*1539 FILLER_0_20_262
*1540 FILLER_0_20_290
*1541 FILLER_0_20_51
*1542 FILLER_0_20_59
*1543 FILLER_0_20_70
*1544 FILLER_0_20_78
*1545 FILLER_0_20_85
*1546 FILLER_0_21_105
*1547 FILLER_0_21_111
*1548 FILLER_0_21_117
*1549 FILLER_0_21_12
*1550 FILLER_0_21_125
*1551 FILLER_0_21_130
*1552 FILLER_0_21_138
*1553 FILLER_0_21_146
*1554 FILLER_0_21_154
*1555 FILLER_0_21_16
*1556 FILLER_0_21_162
*1557 FILLER_0_21_169
*1558 FILLER_0_21_179
*1559 FILLER_0_21_187
*1560 FILLER_0_21_196
*1561 FILLER_0_21_207
*1562 FILLER_0_21_215
*1563 FILLER_0_21_223
*1564 FILLER_0_21_225
*1565 FILLER_0_21_23
*1566 FILLER_0_21_233
*1567 FILLER_0_21_249
*1568 FILLER_0_21_267
*1569 FILLER_0_21_272
*1570 FILLER_0_21_281
*1571 FILLER_0_21_285
*1572 FILLER_0_21_295
*1573 FILLER_0_21_31
*1574 FILLER_0_21_46
*1575 FILLER_0_21_54
*1576 FILLER_0_21_61
*1577 FILLER_0_21_81
*1578 FILLER_0_21_89
*1579 FILLER_0_21_97
*1580 FILLER_0_22_105
*1581 FILLER_0_22_125
*1582 FILLER_0_22_139
*1583 FILLER_0_22_157
*1584 FILLER_0_22_210
*1585 FILLER_0_22_218
*1586 FILLER_0_22_226
*1587 FILLER_0_22_234
*1588 FILLER_0_22_241
*1589 FILLER_0_22_249
*1590 FILLER_0_22_253
*1591 FILLER_0_22_26
*1592 FILLER_0_22_261
*1593 FILLER_0_22_272
*1594 FILLER_0_22_278
*1595 FILLER_0_22_29
*1596 FILLER_0_22_35
*1597 FILLER_0_22_43
*1598 FILLER_0_22_47
*1599 FILLER_0_22_54
*1600 FILLER_0_22_73
*1601 FILLER_0_22_85
*1602 FILLER_0_22_93
*1603 FILLER_0_23_108
*1604 FILLER_0_23_113
*1605 FILLER_0_23_121
*1606 FILLER_0_23_129
*1607 FILLER_0_23_138
*1608 FILLER_0_23_163
*1609 FILLER_0_23_167
*1610 FILLER_0_23_179
*1611 FILLER_0_23_187
*1612 FILLER_0_23_195
*1613 FILLER_0_23_203
*1614 FILLER_0_23_22
*1615 FILLER_0_23_220
*1616 FILLER_0_23_247
*1617 FILLER_0_23_255
*1618 FILLER_0_23_271
*1619 FILLER_0_23_279
*1620 FILLER_0_23_290
*1621 FILLER_0_23_3
*1622 FILLER_0_23_57
*1623 FILLER_0_23_61
*1624 FILLER_0_23_68
*1625 FILLER_0_23_84
*1626 FILLER_0_23_88
*1627 FILLER_0_23_92
*1628 FILLER_0_23_96
*1629 FILLER_0_24_109
*1630 FILLER_0_24_119
*1631 FILLER_0_24_132
*1632 FILLER_0_24_141
*1633 FILLER_0_24_151
*1634 FILLER_0_24_159
*1635 FILLER_0_24_167
*1636 FILLER_0_24_173
*1637 FILLER_0_24_183
*1638 FILLER_0_24_191
*1639 FILLER_0_24_195
*1640 FILLER_0_24_197
*1641 FILLER_0_24_205
*1642 FILLER_0_24_213
*1643 FILLER_0_24_221
*1644 FILLER_0_24_229
*1645 FILLER_0_24_23
*1646 FILLER_0_24_246
*1647 FILLER_0_24_27
*1648 FILLER_0_24_281
*1649 FILLER_0_24_36
*1650 FILLER_0_24_44
*1651 FILLER_0_24_52
*1652 FILLER_0_24_83
*1653 FILLER_0_24_9
*1654 FILLER_0_24_93
*1655 FILLER_0_25_100
*1656 FILLER_0_25_108
*1657 FILLER_0_25_118
*1658 FILLER_0_25_12
*1659 FILLER_0_25_125
*1660 FILLER_0_25_133
*1661 FILLER_0_25_165
*1662 FILLER_0_25_187
*1663 FILLER_0_25_20
*1664 FILLER_0_25_210
*1665 FILLER_0_25_228
*1666 FILLER_0_25_236
*1667 FILLER_0_25_242
*1668 FILLER_0_25_249
*1669 FILLER_0_25_257
*1670 FILLER_0_25_265
*1671 FILLER_0_25_273
*1672 FILLER_0_25_279
*1673 FILLER_0_25_281
*1674 FILLER_0_25_38
*1675 FILLER_0_25_53
*1676 FILLER_0_25_63
*1677 FILLER_0_25_76
*1678 FILLER_0_25_84
*1679 FILLER_0_25_92
*1680 FILLER_0_26_112
*1681 FILLER_0_26_125
*1682 FILLER_0_26_131
*1683 FILLER_0_26_139
*1684 FILLER_0_26_141
*1685 FILLER_0_26_149
*1686 FILLER_0_26_157
*1687 FILLER_0_26_165
*1688 FILLER_0_26_171
*1689 FILLER_0_26_177
*1690 FILLER_0_26_183
*1691 FILLER_0_26_194
*1692 FILLER_0_26_197
*1693 FILLER_0_26_207
*1694 FILLER_0_26_215
*1695 FILLER_0_26_223
*1696 FILLER_0_26_238
*1697 FILLER_0_26_253
*1698 FILLER_0_26_261
*1699 FILLER_0_26_274
*1700 FILLER_0_26_282
*1701 FILLER_0_26_286
*1702 FILLER_0_26_29
*1703 FILLER_0_26_42
*1704 FILLER_0_26_59
*1705 FILLER_0_26_90
*1706 FILLER_0_26_96
*1707 FILLER_0_27_108
*1708 FILLER_0_27_113
*1709 FILLER_0_27_121
*1710 FILLER_0_27_141
*1711 FILLER_0_27_149
*1712 FILLER_0_27_15
*1713 FILLER_0_27_157
*1714 FILLER_0_27_165
*1715 FILLER_0_27_169
*1716 FILLER_0_27_175
*1717 FILLER_0_27_183
*1718 FILLER_0_27_191
*1719 FILLER_0_27_196
*1720 FILLER_0_27_204
*1721 FILLER_0_27_212
*1722 FILLER_0_27_220
*1723 FILLER_0_27_225
*1724 FILLER_0_27_233
*1725 FILLER_0_27_241
*1726 FILLER_0_27_249
*1727 FILLER_0_27_267
*1728 FILLER_0_27_275
*1729 FILLER_0_27_301
*1730 FILLER_0_27_33
*1731 FILLER_0_27_48
*1732 FILLER_0_27_78
*1733 FILLER_0_28_109
*1734 FILLER_0_28_118
*1735 FILLER_0_28_12
*1736 FILLER_0_28_126
*1737 FILLER_0_28_132
*1738 FILLER_0_28_166
*1739 FILLER_0_28_170
*1740 FILLER_0_28_188
*1741 FILLER_0_28_20
*1742 FILLER_0_28_203
*1743 FILLER_0_28_221
*1744 FILLER_0_28_229
*1745 FILLER_0_28_245
*1746 FILLER_0_28_266
*1747 FILLER_0_28_274
*1748 FILLER_0_28_278
*1749 FILLER_0_28_288
*1750 FILLER_0_28_294
*1751 FILLER_0_28_301
*1752 FILLER_0_28_56
*1753 FILLER_0_28_64
*1754 FILLER_0_28_72
*1755 FILLER_0_28_80
*1756 FILLER_0_29_104
*1757 FILLER_0_29_113
*1758 FILLER_0_29_126
*1759 FILLER_0_29_133
*1760 FILLER_0_29_14
*1761 FILLER_0_29_141
*1762 FILLER_0_29_149
*1763 FILLER_0_29_157
*1764 FILLER_0_29_165
*1765 FILLER_0_29_169
*1766 FILLER_0_29_177
*1767 FILLER_0_29_202
*1768 FILLER_0_29_210
*1769 FILLER_0_29_216
*1770 FILLER_0_29_225
*1771 FILLER_0_29_233
*1772 FILLER_0_29_241
*1773 FILLER_0_29_249
*1774 FILLER_0_29_257
*1775 FILLER_0_29_272
*1776 FILLER_0_29_281
*1777 FILLER_0_29_29
*1778 FILLER_0_29_3
*1779 FILLER_0_29_52
*1780 FILLER_0_29_63
*1781 FILLER_0_29_87
*1782 FILLER_0_29_95
*1783 FILLER_0_29_99
*1784 FILLER_0_2_103
*1785 FILLER_0_2_139
*1786 FILLER_0_2_14
*1787 FILLER_0_2_149
*1788 FILLER_0_2_168
*1789 FILLER_0_2_175
*1790 FILLER_0_2_184
*1791 FILLER_0_2_188
*1792 FILLER_0_2_192
*1793 FILLER_0_2_197
*1794 FILLER_0_2_205
*1795 FILLER_0_2_22
*1796 FILLER_0_2_233
*1797 FILLER_0_2_241
*1798 FILLER_0_2_249
*1799 FILLER_0_2_253
*1800 FILLER_0_2_260
*1801 FILLER_0_2_268
*1802 FILLER_0_2_274
*1803 FILLER_0_2_282
*1804 FILLER_0_2_29
*1805 FILLER_0_2_290
*1806 FILLER_0_2_298
*1807 FILLER_0_2_34
*1808 FILLER_0_2_43
*1809 FILLER_0_2_47
*1810 FILLER_0_2_6
*1811 FILLER_0_2_76
*1812 FILLER_0_2_85
*1813 FILLER_0_30_107
*1814 FILLER_0_30_115
*1815 FILLER_0_30_123
*1816 FILLER_0_30_131
*1817 FILLER_0_30_148
*1818 FILLER_0_30_152
*1819 FILLER_0_30_159
*1820 FILLER_0_30_173
*1821 FILLER_0_30_181
*1822 FILLER_0_30_189
*1823 FILLER_0_30_194
*1824 FILLER_0_30_207
*1825 FILLER_0_30_218
*1826 FILLER_0_30_240
*1827 FILLER_0_30_248
*1828 FILLER_0_30_253
*1829 FILLER_0_30_259
*1830 FILLER_0_30_269
*1831 FILLER_0_30_277
*1832 FILLER_0_30_281
*1833 FILLER_0_30_294
*1834 FILLER_0_30_35
*1835 FILLER_0_30_43
*1836 FILLER_0_30_71
*1837 FILLER_0_30_85
*1838 FILLER_0_31_106
*1839 FILLER_0_31_12
*1840 FILLER_0_31_124
*1841 FILLER_0_31_130
*1842 FILLER_0_31_137
*1843 FILLER_0_31_145
*1844 FILLER_0_31_153
*1845 FILLER_0_31_165
*1846 FILLER_0_31_179
*1847 FILLER_0_31_187
*1848 FILLER_0_31_195
*1849 FILLER_0_31_20
*1850 FILLER_0_31_228
*1851 FILLER_0_31_234
*1852 FILLER_0_31_260
*1853 FILLER_0_31_269
*1854 FILLER_0_31_277
*1855 FILLER_0_31_28
*1856 FILLER_0_31_281
*1857 FILLER_0_31_42
*1858 FILLER_0_31_48
*1859 FILLER_0_31_52
*1860 FILLER_0_31_57
*1861 FILLER_0_31_65
*1862 FILLER_0_31_73
*1863 FILLER_0_31_83
*1864 FILLER_0_31_91
*1865 FILLER_0_31_99
*1866 FILLER_0_32_106
*1867 FILLER_0_32_114
*1868 FILLER_0_32_138
*1869 FILLER_0_32_147
*1870 FILLER_0_32_15
*1871 FILLER_0_32_155
*1872 FILLER_0_32_172
*1873 FILLER_0_32_207
*1874 FILLER_0_32_213
*1875 FILLER_0_32_23
*1876 FILLER_0_32_231
*1877 FILLER_0_32_244
*1878 FILLER_0_32_253
*1879 FILLER_0_32_261
*1880 FILLER_0_32_27
*1881 FILLER_0_32_276
*1882 FILLER_0_32_287
*1883 FILLER_0_32_29
*1884 FILLER_0_32_295
*1885 FILLER_0_32_3
*1886 FILLER_0_32_37
*1887 FILLER_0_32_65
*1888 FILLER_0_32_73
*1889 FILLER_0_32_81
*1890 FILLER_0_32_90
*1891 FILLER_0_32_98
*1892 FILLER_0_33_113
*1893 FILLER_0_33_120
*1894 FILLER_0_33_128
*1895 FILLER_0_33_136
*1896 FILLER_0_33_155
*1897 FILLER_0_33_163
*1898 FILLER_0_33_167
*1899 FILLER_0_33_169
*1900 FILLER_0_33_177
*1901 FILLER_0_33_191
*1902 FILLER_0_33_209
*1903 FILLER_0_33_222
*1904 FILLER_0_33_225
*1905 FILLER_0_33_233
*1906 FILLER_0_33_241
*1907 FILLER_0_33_249
*1908 FILLER_0_33_260
*1909 FILLER_0_33_268