* NGSPICE file created from pid.ext - technology: sky130A

.subckt sky130_fd_sc_hd__xnor2_1 A B VGND VNB VPB VPWR Y
X0 a_377_297# A VPWR VPB sky130_fd_pr__pfet_01v8_hvt ad=0.105 pd=1.21 as=0.365 ps=1.73 w=1 l=0.15
X1 a_47_47# B VPWR VPB sky130_fd_pr__pfet_01v8_hvt ad=0.135 pd=1.27 as=0.3 ps=2.6 w=1 l=0.15
X2 a_129_47# B a_47_47# VNB sky130_fd_pr__nfet_01v8 ad=0.0683 pd=0.86 as=0.169 ps=1.82 w=0.65 l=0.15
X3 a_285_47# B VGND VNB sky130_fd_pr__nfet_01v8 ad=0.0878 pd=0.92 as=0.169 ps=1.82 w=0.65 l=0.15
X4 Y a_47_47# a_285_47# VNB sky130_fd_pr__nfet_01v8 ad=0.195 pd=1.9 as=0.0878 ps=0.92 w=0.65 l=0.15
X5 VGND A a_129_47# VNB sky130_fd_pr__nfet_01v8 ad=0.0878 pd=0.92 as=0.0683 ps=0.86 w=0.65 l=0.15
X6 VPWR A a_47_47# VPB sky130_fd_pr__pfet_01v8_hvt ad=0.365 pd=1.73 as=0.135 ps=1.27 w=1 l=0.15
X7 VPWR a_47_47# Y VPB sky130_fd_pr__pfet_01v8_hvt ad=0.36 pd=2.72 as=0.165 ps=1.33 w=1 l=0.15
X8 Y B a_377_297# VPB sky130_fd_pr__pfet_01v8_hvt ad=0.165 pd=1.33 as=0.105 ps=1.21 w=1 l=0.15
X9 a_285_47# A VGND VNB sky130_fd_pr__nfet_01v8 ad=0.169 pd=1.82 as=0.0878 ps=0.92 w=0.65 l=0.15
.ends

.subckt sky130_fd_sc_hd__decap_4 VGND VNB VPB VPWR
X0 VPWR VGND VPWR VPB sky130_fd_pr__pfet_01v8_hvt ad=0.226 pd=2.26 as=0 ps=0 w=0.87 l=1.05
X1 VGND VPWR VGND VNB sky130_fd_pr__nfet_01v8 ad=0.143 pd=1.62 as=0 ps=0 w=0.55 l=1.05
.ends

.subckt sky130_fd_sc_hd__decap_3 VGND VNB VPB VPWR
X0 VPWR VGND VPWR VPB sky130_fd_pr__pfet_01v8_hvt ad=0.226 pd=2.26 as=0 ps=0 w=0.87 l=0.59
X1 VGND VPWR VGND VNB sky130_fd_pr__nfet_01v8 ad=0.143 pd=1.62 as=0 ps=0 w=0.55 l=0.59
.ends

.subckt sky130_fd_sc_hd__decap_8 VGND VNB VPB VPWR
X0 VPWR VGND VPWR VPB sky130_fd_pr__pfet_01v8_hvt ad=0.226 pd=2.26 as=0 ps=0 w=0.87 l=2.89
X1 VGND VPWR VGND VNB sky130_fd_pr__nfet_01v8 ad=0.143 pd=1.62 as=0 ps=0 w=0.55 l=2.89
.ends

.subckt sky130_fd_sc_hd__decap_6 VGND VNB VPB VPWR
X0 VPWR VGND VPWR VPB sky130_fd_pr__pfet_01v8_hvt ad=0.226 pd=2.26 as=0 ps=0 w=0.87 l=1.97
X1 VGND VPWR VGND VNB sky130_fd_pr__nfet_01v8 ad=0.143 pd=1.62 as=0 ps=0 w=0.55 l=1.97
.ends

.subckt sky130_fd_sc_hd__nor2_1 A B VGND VNB VPB VPWR Y
X0 VPWR A a_109_297# VPB sky130_fd_pr__pfet_01v8_hvt ad=0.26 pd=2.52 as=0.105 ps=1.21 w=1 l=0.15
X1 VGND A Y VNB sky130_fd_pr__nfet_01v8 ad=0.169 pd=1.82 as=0.0878 ps=0.92 w=0.65 l=0.15
X2 a_109_297# B Y VPB sky130_fd_pr__pfet_01v8_hvt ad=0.105 pd=1.21 as=0.26 ps=2.52 w=1 l=0.15
X3 Y B VGND VNB sky130_fd_pr__nfet_01v8 ad=0.0878 pd=0.92 as=0.169 ps=1.82 w=0.65 l=0.15
.ends

.subckt sky130_fd_sc_hd__nand2_1 A B VGND VNB VPB VPWR Y
X0 VPWR A Y VPB sky130_fd_pr__pfet_01v8_hvt ad=0.26 pd=2.52 as=0.135 ps=1.27 w=1 l=0.15
X1 Y A a_113_47# VNB sky130_fd_pr__nfet_01v8 ad=0.169 pd=1.82 as=0.0878 ps=0.92 w=0.65 l=0.15
X2 a_113_47# B VGND VNB sky130_fd_pr__nfet_01v8 ad=0.0878 pd=0.92 as=0.169 ps=1.82 w=0.65 l=0.15
X3 Y B VPWR VPB sky130_fd_pr__pfet_01v8_hvt ad=0.135 pd=1.27 as=0.26 ps=2.52 w=1 l=0.15
.ends

.subckt sky130_fd_sc_hd__o21ba_2 A1 A2 B1_N VGND VNB VPB VPWR X
X0 VGND B1_N a_27_93# VNB sky130_fd_pr__nfet_01v8 ad=0.097 pd=0.975 as=0.109 ps=1.36 w=0.42 l=0.15
X1 VGND A2 a_478_47# VNB sky130_fd_pr__nfet_01v8 ad=0.0878 pd=0.92 as=0.106 ps=0.975 w=0.65 l=0.15
X2 a_478_47# a_27_93# a_174_21# VNB sky130_fd_pr__nfet_01v8 ad=0.106 pd=0.975 as=0.169 ps=1.82 w=0.65 l=0.15
X3 a_478_47# A1 VGND VNB sky130_fd_pr__nfet_01v8 ad=0.169 pd=1.82 as=0.0878 ps=0.92 w=0.65 l=0.15
X4 X a_174_21# VGND VNB sky130_fd_pr__nfet_01v8 ad=0.0878 pd=0.92 as=0.097 ps=0.975 w=0.65 l=0.15
X5 VPWR a_174_21# X VPB sky130_fd_pr__pfet_01v8_hvt ad=0.395 pd=1.79 as=0.135 ps=1.27 w=1 l=0.15
X6 X a_174_21# VPWR VPB sky130_fd_pr__pfet_01v8_hvt ad=0.135 pd=1.27 as=0.146 ps=1.34 w=1 l=0.15
X7 VPWR A1 a_574_297# VPB sky130_fd_pr__pfet_01v8_hvt ad=0.28 pd=2.56 as=0.105 ps=1.21 w=1 l=0.15
X8 VGND a_174_21# X VNB sky130_fd_pr__nfet_01v8 ad=0.169 pd=1.82 as=0.0878 ps=0.92 w=0.65 l=0.15
X9 VPWR B1_N a_27_93# VPB sky130_fd_pr__pfet_01v8_hvt ad=0.146 pd=1.34 as=0.109 ps=1.36 w=0.42 l=0.15
X10 a_574_297# A2 a_174_21# VPB sky130_fd_pr__pfet_01v8_hvt ad=0.105 pd=1.21 as=0.165 ps=1.33 w=1 l=0.15
X11 a_174_21# a_27_93# VPWR VPB sky130_fd_pr__pfet_01v8_hvt ad=0.165 pd=1.33 as=0.395 ps=1.79 w=1 l=0.15
.ends

.subckt sky130_fd_sc_hd__or2_1 A B VGND VNB VPB VPWR X
X0 VGND A a_68_297# VNB sky130_fd_pr__nfet_01v8 ad=0.1 pd=0.985 as=0.0567 ps=0.69 w=0.42 l=0.15
X1 a_68_297# B VGND VNB sky130_fd_pr__nfet_01v8 ad=0.0567 pd=0.69 as=0.109 ps=1.36 w=0.42 l=0.15
X2 X a_68_297# VGND VNB sky130_fd_pr__nfet_01v8 ad=0.169 pd=1.82 as=0.1 ps=0.985 w=0.65 l=0.15
X3 VPWR A a_150_297# VPB sky130_fd_pr__pfet_01v8_hvt ad=0.146 pd=1.34 as=0.0441 ps=0.63 w=0.42 l=0.15
X4 X a_68_297# VPWR VPB sky130_fd_pr__pfet_01v8_hvt ad=0.34 pd=2.68 as=0.146 ps=1.34 w=1 l=0.15
X5 a_150_297# B a_68_297# VPB sky130_fd_pr__pfet_01v8_hvt ad=0.0441 pd=0.63 as=0.109 ps=1.36 w=0.42 l=0.15
.ends

.subckt sky130_fd_sc_hd__and3_1 A B C VGND VNB VPB VPWR X
X0 VPWR A a_27_47# VPB sky130_fd_pr__pfet_01v8_hvt ad=0.0567 pd=0.69 as=0.109 ps=1.36 w=0.42 l=0.15
X1 VPWR C a_27_47# VPB sky130_fd_pr__pfet_01v8_hvt ad=0.142 pd=1.34 as=0.0662 ps=0.735 w=0.42 l=0.15
X2 a_181_47# B a_109_47# VNB sky130_fd_pr__nfet_01v8 ad=0.0441 pd=0.63 as=0.0441 ps=0.63 w=0.42 l=0.15
X3 VGND C a_181_47# VNB sky130_fd_pr__nfet_01v8 ad=0.132 pd=1.14 as=0.0441 ps=0.63 w=0.42 l=0.15
X4 a_27_47# B VPWR VPB sky130_fd_pr__pfet_01v8_hvt ad=0.0662 pd=0.735 as=0.0567 ps=0.69 w=0.42 l=0.15
X5 X a_27_47# VPWR VPB sky130_fd_pr__pfet_01v8_hvt ad=0.26 pd=2.52 as=0.142 ps=1.34 w=1 l=0.15
X6 X a_27_47# VGND VNB sky130_fd_pr__nfet_01v8 ad=0.169 pd=1.82 as=0.132 ps=1.14 w=0.65 l=0.15
X7 a_109_47# A a_27_47# VNB sky130_fd_pr__nfet_01v8 ad=0.0441 pd=0.63 as=0.109 ps=1.36 w=0.42 l=0.15
.ends

.subckt sky130_fd_sc_hd__a22oi_1 A1 A2 B1 B2 VGND VNB VPB VPWR Y
X0 Y B1 a_109_47# VNB sky130_fd_pr__nfet_01v8 ad=0.169 pd=1.82 as=0.0747 ps=0.88 w=0.65 l=0.15
X1 Y B1 a_109_297# VPB sky130_fd_pr__pfet_01v8_hvt ad=0.26 pd=2.52 as=0.135 ps=1.27 w=1 l=0.15
X2 VPWR A2 a_109_297# VPB sky130_fd_pr__pfet_01v8_hvt ad=0.3 pd=2.6 as=0.135 ps=1.27 w=1 l=0.15
X3 a_109_297# A1 VPWR VPB sky130_fd_pr__pfet_01v8_hvt ad=0.135 pd=1.27 as=0.26 ps=2.52 w=1 l=0.15
X4 a_381_47# A1 Y VNB sky130_fd_pr__nfet_01v8 ad=0.0683 pd=0.86 as=0.169 ps=1.82 w=0.65 l=0.15
X5 a_109_297# B2 Y VPB sky130_fd_pr__pfet_01v8_hvt ad=0.135 pd=1.27 as=0.26 ps=2.52 w=1 l=0.15
X6 a_109_47# B2 VGND VNB sky130_fd_pr__nfet_01v8 ad=0.0747 pd=0.88 as=0.169 ps=1.82 w=0.65 l=0.15
X7 VGND A2 a_381_47# VNB sky130_fd_pr__nfet_01v8 ad=0.234 pd=2.02 as=0.0683 ps=0.86 w=0.65 l=0.15
.ends

.subckt sky130_fd_sc_hd__a21boi_2 A1 A2 B1_N VGND VNB VPB VPWR Y
X0 Y a_61_47# VGND VNB sky130_fd_pr__nfet_01v8 ad=0.0878 pd=0.92 as=0.183 ps=1.24 w=0.65 l=0.15
X1 VPWR A2 a_217_297# VPB sky130_fd_pr__pfet_01v8_hvt ad=0.135 pd=1.27 as=0.135 ps=1.27 w=1 l=0.15
X2 a_217_297# a_61_47# Y VPB sky130_fd_pr__pfet_01v8_hvt ad=0.135 pd=1.27 as=0.135 ps=1.27 w=1 l=0.15
X3 a_479_47# A2 VGND VNB sky130_fd_pr__nfet_01v8 ad=0.0683 pd=0.86 as=0.107 ps=0.98 w=0.65 l=0.15
X4 a_217_297# A2 VPWR VPB sky130_fd_pr__pfet_01v8_hvt ad=0.285 pd=2.57 as=0.14 ps=1.28 w=1 l=0.15
X5 Y a_61_47# a_217_297# VPB sky130_fd_pr__pfet_01v8_hvt ad=0.135 pd=1.27 as=0.26 ps=2.52 w=1 l=0.15
X6 VPWR A1 a_217_297# VPB sky130_fd_pr__pfet_01v8_hvt ad=0.14 pd=1.28 as=0.14 ps=1.28 w=1 l=0.15
X7 a_61_47# B1_N VPWR VPB sky130_fd_pr__pfet_01v8_hvt ad=0.111 pd=1.37 as=0.111 ps=1.37 w=0.42 l=0.15
X8 VGND A2 a_637_47# VNB sky130_fd_pr__nfet_01v8 ad=0.185 pd=1.87 as=0.091 ps=0.93 w=0.65 l=0.15
X9 VGND a_61_47# Y VNB sky130_fd_pr__nfet_01v8 ad=0.107 pd=0.98 as=0.0878 ps=0.92 w=0.65 l=0.15
X10 Y A1 a_479_47# VNB sky130_fd_pr__nfet_01v8 ad=0.091 pd=0.93 as=0.0683 ps=0.86 w=0.65 l=0.15
X11 VGND B1_N a_61_47# VNB sky130_fd_pr__nfet_01v8 ad=0.183 pd=1.24 as=0.126 ps=1.44 w=0.42 l=0.15
X12 a_217_297# A1 VPWR VPB sky130_fd_pr__pfet_01v8_hvt ad=0.14 pd=1.28 as=0.135 ps=1.27 w=1 l=0.15
X13 a_637_47# A1 Y VNB sky130_fd_pr__nfet_01v8 ad=0.091 pd=0.93 as=0.091 ps=0.93 w=0.65 l=0.15
.ends

.subckt sky130_fd_sc_hd__inv_2 A VGND VNB VPB VPWR Y
X0 Y A VPWR VPB sky130_fd_pr__pfet_01v8_hvt ad=0.135 pd=1.27 as=0.26 ps=2.52 w=1 l=0.15
X1 VGND A Y VNB sky130_fd_pr__nfet_01v8 ad=0.169 pd=1.82 as=0.0878 ps=0.92 w=0.65 l=0.15
X2 Y A VGND VNB sky130_fd_pr__nfet_01v8 ad=0.0878 pd=0.92 as=0.169 ps=1.82 w=0.65 l=0.15
X3 VPWR A Y VPB sky130_fd_pr__pfet_01v8_hvt ad=0.26 pd=2.52 as=0.135 ps=1.27 w=1 l=0.15
.ends

.subckt sky130_fd_sc_hd__and4b_1 A_N B C D VGND VNB VPB VPWR X
X0 a_297_47# a_27_47# a_193_413# VNB sky130_fd_pr__nfet_01v8 ad=0.0441 pd=0.63 as=0.109 ps=1.36 w=0.42 l=0.15
X1 a_369_47# B a_297_47# VNB sky130_fd_pr__nfet_01v8 ad=0.0735 pd=0.77 as=0.0441 ps=0.63 w=0.42 l=0.15
X2 VPWR D a_193_413# VPB sky130_fd_pr__pfet_01v8_hvt ad=0.141 pd=1.33 as=0.0662 ps=0.735 w=0.42 l=0.15
X3 X a_193_413# VGND VNB sky130_fd_pr__nfet_01v8 ad=0.169 pd=1.82 as=0.103 ps=1 w=0.65 l=0.15
X4 VPWR A_N a_27_47# VPB sky130_fd_pr__pfet_01v8_hvt ad=0.0567 pd=0.69 as=0.109 ps=1.36 w=0.42 l=0.15
X5 VGND D a_469_47# VNB sky130_fd_pr__nfet_01v8 ad=0.103 pd=1 as=0.0609 ps=0.71 w=0.42 l=0.15
X6 X a_193_413# VPWR VPB sky130_fd_pr__pfet_01v8_hvt ad=0.26 pd=2.52 as=0.141 ps=1.33 w=1 l=0.15
X7 VPWR B a_193_413# VPB sky130_fd_pr__pfet_01v8_hvt ad=0.128 pd=1.03 as=0.0987 ps=0.89 w=0.42 l=0.15
X8 a_193_413# C VPWR VPB sky130_fd_pr__pfet_01v8_hvt ad=0.0662 pd=0.735 as=0.128 ps=1.03 w=0.42 l=0.15
X9 a_193_413# a_27_47# VPWR VPB sky130_fd_pr__pfet_01v8_hvt ad=0.0987 pd=0.89 as=0.0567 ps=0.69 w=0.42 l=0.15
X10 a_469_47# C a_369_47# VNB sky130_fd_pr__nfet_01v8 ad=0.0609 pd=0.71 as=0.0735 ps=0.77 w=0.42 l=0.15
X11 VGND A_N a_27_47# VNB sky130_fd_pr__nfet_01v8 ad=0.109 pd=1.36 as=0.109 ps=1.36 w=0.42 l=0.15
.ends

.subckt sky130_fd_sc_hd__o21a_1 A1 A2 B1 VGND VNB VPB VPWR X
X0 VPWR A1 a_382_297# VPB sky130_fd_pr__pfet_01v8_hvt ad=0.26 pd=2.52 as=0.153 ps=1.3 w=1 l=0.15
X1 a_297_47# B1 a_79_21# VNB sky130_fd_pr__nfet_01v8 ad=0.101 pd=0.96 as=0.169 ps=1.82 w=0.65 l=0.15
X2 a_297_47# A1 VGND VNB sky130_fd_pr__nfet_01v8 ad=0.169 pd=1.82 as=0.0878 ps=0.92 w=0.65 l=0.15
X3 VGND A2 a_297_47# VNB sky130_fd_pr__nfet_01v8 ad=0.0878 pd=0.92 as=0.101 ps=0.96 w=0.65 l=0.15
X4 VPWR a_79_21# X VPB sky130_fd_pr__pfet_01v8_hvt ad=0.327 pd=1.65 as=0.28 ps=2.56 w=1 l=0.15
X5 a_79_21# B1 VPWR VPB sky130_fd_pr__pfet_01v8_hvt ad=0.195 pd=1.39 as=0.327 ps=1.65 w=1 l=0.15
X6 a_382_297# A2 a_79_21# VPB sky130_fd_pr__pfet_01v8_hvt ad=0.153 pd=1.3 as=0.195 ps=1.39 w=1 l=0.15
X7 VGND a_79_21# X VNB sky130_fd_pr__nfet_01v8 ad=0.169 pd=1.82 as=0.169 ps=1.82 w=0.65 l=0.15
.ends

.subckt sky130_fd_sc_hd__buf_2 A VGND VNB VPB VPWR X
X0 VPWR a_27_47# X VPB sky130_fd_pr__pfet_01v8_hvt ad=0.265 pd=2.53 as=0.135 ps=1.27 w=1 l=0.15
X1 X a_27_47# VPWR VPB sky130_fd_pr__pfet_01v8_hvt ad=0.135 pd=1.27 as=0.149 ps=1.33 w=1 l=0.15
X2 VPWR A a_27_47# VPB sky130_fd_pr__pfet_01v8_hvt ad=0.149 pd=1.33 as=0.166 ps=1.8 w=0.64 l=0.15
X3 X a_27_47# VGND VNB sky130_fd_pr__nfet_01v8 ad=0.0878 pd=0.92 as=0.097 ps=0.975 w=0.65 l=0.15
X4 VGND a_27_47# X VNB sky130_fd_pr__nfet_01v8 ad=0.172 pd=1.83 as=0.0878 ps=0.92 w=0.65 l=0.15
X5 VGND A a_27_47# VNB sky130_fd_pr__nfet_01v8 ad=0.097 pd=0.975 as=0.109 ps=1.36 w=0.42 l=0.15
.ends

.subckt sky130_fd_sc_hd__a21o_1 A1 A2 B1 VGND VNB VPB VPWR X
X0 a_81_21# B1 VGND VNB sky130_fd_pr__nfet_01v8 ad=0.0894 pd=0.925 as=0.257 ps=1.44 w=0.65 l=0.15
X1 a_299_297# B1 a_81_21# VPB sky130_fd_pr__pfet_01v8_hvt ad=0.138 pd=1.27 as=0.26 ps=2.52 w=1 l=0.15
X2 VPWR a_81_21# X VPB sky130_fd_pr__pfet_01v8_hvt ad=0.26 pd=2.52 as=0.26 ps=2.52 w=1 l=0.15
X3 VPWR A1 a_299_297# VPB sky130_fd_pr__pfet_01v8_hvt ad=0.14 pd=1.28 as=0.138 ps=1.27 w=1 l=0.15
X4 VGND a_81_21# X VNB sky130_fd_pr__nfet_01v8 ad=0.257 pd=1.44 as=0.169 ps=1.82 w=0.65 l=0.15
X5 VGND A2 a_384_47# VNB sky130_fd_pr__nfet_01v8 ad=0.172 pd=1.83 as=0.091 ps=0.93 w=0.65 l=0.15
X6 a_299_297# A2 VPWR VPB sky130_fd_pr__pfet_01v8_hvt ad=0.265 pd=2.53 as=0.14 ps=1.28 w=1 l=0.15
X7 a_384_47# A1 a_81_21# VNB sky130_fd_pr__nfet_01v8 ad=0.091 pd=0.93 as=0.0894 ps=0.925 w=0.65 l=0.15
.ends

.subckt sky130_fd_sc_hd__buf_4 A VGND VNB VPB VPWR X
X0 VPWR a_27_47# X VPB sky130_fd_pr__pfet_01v8_hvt ad=0.26 pd=2.52 as=0.135 ps=1.27 w=1 l=0.15
X1 X a_27_47# VPWR VPB sky130_fd_pr__pfet_01v8_hvt ad=0.135 pd=1.27 as=0.135 ps=1.27 w=1 l=0.15
X2 VPWR a_27_47# X VPB sky130_fd_pr__pfet_01v8_hvt ad=0.135 pd=1.27 as=0.135 ps=1.27 w=1 l=0.15
X3 X a_27_47# VPWR VPB sky130_fd_pr__pfet_01v8_hvt ad=0.135 pd=1.27 as=0.135 ps=1.27 w=1 l=0.15
X4 X a_27_47# VGND VNB sky130_fd_pr__nfet_01v8 ad=0.0878 pd=0.92 as=0.0878 ps=0.92 w=0.65 l=0.15
X5 X a_27_47# VGND VNB sky130_fd_pr__nfet_01v8 ad=0.0878 pd=0.92 as=0.0878 ps=0.92 w=0.65 l=0.15
X6 VGND a_27_47# X VNB sky130_fd_pr__nfet_01v8 ad=0.0878 pd=0.92 as=0.0878 ps=0.92 w=0.65 l=0.15
X7 VGND a_27_47# X VNB sky130_fd_pr__nfet_01v8 ad=0.169 pd=1.82 as=0.0878 ps=0.92 w=0.65 l=0.15
X8 VPWR A a_27_47# VPB sky130_fd_pr__pfet_01v8_hvt ad=0.135 pd=1.27 as=0.26 ps=2.52 w=1 l=0.15
X9 VGND A a_27_47# VNB sky130_fd_pr__nfet_01v8 ad=0.0878 pd=0.92 as=0.169 ps=1.82 w=0.65 l=0.15
.ends

.subckt sky130_fd_sc_hd__a21oi_1 A1 A2 B1 VGND VNB VPB VPWR Y
X0 a_199_47# A1 Y VNB sky130_fd_pr__nfet_01v8 ad=0.0959 pd=0.945 as=0.091 ps=0.93 w=0.65 l=0.15
X1 a_113_297# A2 VPWR VPB sky130_fd_pr__pfet_01v8_hvt ad=0.265 pd=2.53 as=0.147 ps=1.29 w=1 l=0.15
X2 Y B1 VGND VNB sky130_fd_pr__nfet_01v8 ad=0.091 pd=0.93 as=0.172 ps=1.83 w=0.65 l=0.15
X3 VPWR A1 a_113_297# VPB sky130_fd_pr__pfet_01v8_hvt ad=0.147 pd=1.29 as=0.14 ps=1.28 w=1 l=0.15
X4 a_113_297# B1 Y VPB sky130_fd_pr__pfet_01v8_hvt ad=0.14 pd=1.28 as=0.265 ps=2.53 w=1 l=0.15
X5 VGND A2 a_199_47# VNB sky130_fd_pr__nfet_01v8 ad=0.172 pd=1.83 as=0.0959 ps=0.945 w=0.65 l=0.15
.ends

.subckt sky130_fd_sc_hd__nand3_1 A B C VGND VNB VPB VPWR Y
X0 VPWR B Y VPB sky130_fd_pr__pfet_01v8_hvt ad=0.165 pd=1.33 as=0.135 ps=1.27 w=1 l=0.15
X1 Y A VPWR VPB sky130_fd_pr__pfet_01v8_hvt ad=0.26 pd=2.52 as=0.165 ps=1.33 w=1 l=0.15
X2 a_193_47# B a_109_47# VNB sky130_fd_pr__nfet_01v8 ad=0.107 pd=0.98 as=0.0878 ps=0.92 w=0.65 l=0.15
X3 Y A a_193_47# VNB sky130_fd_pr__nfet_01v8 ad=0.169 pd=1.82 as=0.107 ps=0.98 w=0.65 l=0.15
X4 Y C VPWR VPB sky130_fd_pr__pfet_01v8_hvt ad=0.135 pd=1.27 as=0.26 ps=2.52 w=1 l=0.15
X5 a_109_47# C VGND VNB sky130_fd_pr__nfet_01v8 ad=0.0878 pd=0.92 as=0.169 ps=1.82 w=0.65 l=0.15
.ends

.subckt sky130_fd_sc_hd__a22o_1 A1 A2 B1 B2 VGND VNB VPB VPWR X
X0 VPWR A2 a_109_297# VPB sky130_fd_pr__pfet_01v8_hvt ad=0.155 pd=1.31 as=0.16 ps=1.32 w=1 l=0.15
X1 a_27_297# B1 a_109_47# VNB sky130_fd_pr__nfet_01v8 ad=0.169 pd=1.82 as=0.0747 ps=0.88 w=0.65 l=0.15
X2 VGND A2 a_373_47# VNB sky130_fd_pr__nfet_01v8 ad=0.101 pd=0.96 as=0.114 ps=1 w=0.65 l=0.15
X3 X a_27_297# VPWR VPB sky130_fd_pr__pfet_01v8_hvt ad=0.26 pd=2.52 as=0.155 ps=1.31 w=1 l=0.15
X4 a_27_297# B1 a_109_297# VPB sky130_fd_pr__pfet_01v8_hvt ad=0.253 pd=2.52 as=0.135 ps=1.27 w=1 l=0.15
X5 a_109_297# A1 VPWR VPB sky130_fd_pr__pfet_01v8_hvt ad=0.16 pd=1.32 as=0.253 ps=2.52 w=1 l=0.15
X6 a_373_47# A1 a_27_297# VNB sky130_fd_pr__nfet_01v8 ad=0.114 pd=1 as=0.169 ps=1.82 w=0.65 l=0.15
X7 X a_27_297# VGND VNB sky130_fd_pr__nfet_01v8 ad=0.169 pd=1.82 as=0.101 ps=0.96 w=0.65 l=0.15
X8 a_109_297# B2 a_27_297# VPB sky130_fd_pr__pfet_01v8_hvt ad=0.135 pd=1.27 as=0.26 ps=2.52 w=1 l=0.15
X9 a_109_47# B2 VGND VNB sky130_fd_pr__nfet_01v8 ad=0.0747 pd=0.88 as=0.169 ps=1.82 w=0.65 l=0.15
.ends

.subckt sky130_fd_sc_hd__buf_1 A VGND VNB VPB VPWR X
X0 VPWR A a_27_47# VPB sky130_fd_pr__pfet_01v8_hvt ad=0.115 pd=1.08 as=0.205 ps=2.1 w=0.79 l=0.15
X1 X a_27_47# VGND VNB sky130_fd_pr__nfet_01v8 ad=0.135 pd=1.56 as=0.0754 ps=0.81 w=0.52 l=0.15
X2 X a_27_47# VPWR VPB sky130_fd_pr__pfet_01v8_hvt ad=0.205 pd=2.1 as=0.115 ps=1.08 w=0.79 l=0.15
X3 VGND A a_27_47# VNB sky130_fd_pr__nfet_01v8 ad=0.0754 pd=0.81 as=0.135 ps=1.56 w=0.52 l=0.15
.ends

.subckt sky130_fd_sc_hd__o21ba_1 A1 A2 B1_N VGND VNB VPB VPWR X
X0 a_222_93# B1_N VGND VNB sky130_fd_pr__nfet_01v8 ad=0.109 pd=1.36 as=0.1 ps=0.985 w=0.42 l=0.15
X1 VPWR A1 a_544_297# VPB sky130_fd_pr__pfet_01v8_hvt ad=0.28 pd=2.56 as=0.105 ps=1.21 w=1 l=0.15
X2 VGND a_79_199# X VNB sky130_fd_pr__nfet_01v8 ad=0.1 pd=0.985 as=0.169 ps=1.82 w=0.65 l=0.15
X3 a_222_93# B1_N VPWR VPB sky130_fd_pr__pfet_01v8_hvt ad=0.118 pd=1.4 as=0.186 ps=1.41 w=0.42 l=0.15
X4 VGND A2 a_448_47# VNB sky130_fd_pr__nfet_01v8 ad=0.0878 pd=0.92 as=0.107 ps=0.98 w=0.65 l=0.15
X5 a_448_47# a_222_93# a_79_199# VNB sky130_fd_pr__nfet_01v8 ad=0.107 pd=0.98 as=0.169 ps=1.82 w=0.65 l=0.15
X6 a_79_199# a_222_93# VPWR VPB sky130_fd_pr__pfet_01v8_hvt ad=0.165 pd=1.33 as=0.3 ps=2.6 w=1 l=0.15
X7 a_544_297# A2 a_79_199# VPB sky130_fd_pr__pfet_01v8_hvt ad=0.105 pd=1.21 as=0.165 ps=1.33 w=1 l=0.15
X8 a_448_47# A1 VGND VNB sky130_fd_pr__nfet_01v8 ad=0.172 pd=1.83 as=0.0878 ps=0.92 w=0.65 l=0.15
X9 VPWR a_79_199# X VPB sky130_fd_pr__pfet_01v8_hvt ad=0.186 pd=1.41 as=0.26 ps=2.52 w=1 l=0.15
.ends

.subckt sky130_fd_sc_hd__a211o_1 A1 A2 B1 C1 VGND VNB VPB VPWR X
X0 VPWR a_80_21# X VPB sky130_fd_pr__pfet_01v8_hvt ad=0.265 pd=2.53 as=0.265 ps=2.53 w=1 l=0.15
X1 a_80_21# C1 a_472_297# VPB sky130_fd_pr__pfet_01v8_hvt ad=0.265 pd=2.53 as=0.155 ps=1.31 w=1 l=0.15
X2 VPWR A2 a_217_297# VPB sky130_fd_pr__pfet_01v8_hvt ad=0.14 pd=1.28 as=0.265 ps=2.53 w=1 l=0.15
X3 VGND B1 a_80_21# VNB sky130_fd_pr__nfet_01v8 ad=0.101 pd=0.96 as=0.091 ps=0.93 w=0.65 l=0.15
X4 VGND a_80_21# X VNB sky130_fd_pr__nfet_01v8 ad=0.26 pd=1.45 as=0.172 ps=1.83 w=0.65 l=0.15
X5 a_300_47# A2 VGND VNB sky130_fd_pr__nfet_01v8 ad=0.091 pd=0.93 as=0.26 ps=1.45 w=0.65 l=0.15
X6 a_217_297# A1 VPWR VPB sky130_fd_pr__pfet_01v8_hvt ad=0.14 pd=1.28 as=0.14 ps=1.28 w=1 l=0.15
X7 a_80_21# A1 a_300_47# VNB sky130_fd_pr__nfet_01v8 ad=0.091 pd=0.93 as=0.091 ps=0.93 w=0.65 l=0.15
X8 a_472_297# B1 a_217_297# VPB sky130_fd_pr__pfet_01v8_hvt ad=0.155 pd=1.31 as=0.14 ps=1.28 w=1 l=0.15
X9 a_80_21# C1 VGND VNB sky130_fd_pr__nfet_01v8 ad=0.172 pd=1.83 as=0.101 ps=0.96 w=0.65 l=0.15
.ends

.subckt sky130_fd_sc_hd__xor2_1 A B VGND VNB VPB VPWR X
X0 X a_35_297# a_285_297# VPB sky130_fd_pr__pfet_01v8_hvt ad=0.3 pd=2.6 as=0.26 ps=2.52 w=1 l=0.15
X1 X B a_285_47# VNB sky130_fd_pr__nfet_01v8 ad=0.25 pd=1.42 as=0.0878 ps=0.92 w=0.65 l=0.15
X2 a_35_297# B VGND VNB sky130_fd_pr__nfet_01v8 ad=0.0878 pd=0.92 as=0.169 ps=1.82 w=0.65 l=0.15
X3 a_117_297# B a_35_297# VPB sky130_fd_pr__pfet_01v8_hvt ad=0.135 pd=1.27 as=0.26 ps=2.52 w=1 l=0.15
X4 VPWR B a_285_297# VPB sky130_fd_pr__pfet_01v8_hvt ad=0.26 pd=2.52 as=0.135 ps=1.27 w=1 l=0.15
X5 VGND A a_35_297# VNB sky130_fd_pr__nfet_01v8 ad=0.0878 pd=0.92 as=0.0878 ps=0.92 w=0.65 l=0.15
X6 VGND a_35_297# X VNB sky130_fd_pr__nfet_01v8 ad=0.208 pd=1.94 as=0.25 ps=1.42 w=0.65 l=0.15
X7 a_285_297# A VPWR VPB sky130_fd_pr__pfet_01v8_hvt ad=0.135 pd=1.27 as=0.135 ps=1.27 w=1 l=0.15
X8 VPWR A a_117_297# VPB sky130_fd_pr__pfet_01v8_hvt ad=0.135 pd=1.27 as=0.135 ps=1.27 w=1 l=0.15
X9 a_285_47# A VGND VNB sky130_fd_pr__nfet_01v8 ad=0.0878 pd=0.92 as=0.0878 ps=0.92 w=0.65 l=0.15
.ends

.subckt sky130_fd_sc_hd__and2b_1 A_N B VGND VNB VPB VPWR X
X0 VPWR B a_207_413# VPB sky130_fd_pr__pfet_01v8_hvt ad=0.228 pd=1.74 as=0.0609 ps=0.71 w=0.42 l=0.15
X1 X a_207_413# VPWR VPB sky130_fd_pr__pfet_01v8_hvt ad=0.26 pd=2.52 as=0.228 ps=1.74 w=1 l=0.15
X2 a_297_47# a_27_413# a_207_413# VNB sky130_fd_pr__nfet_01v8 ad=0.0504 pd=0.66 as=0.109 ps=1.36 w=0.42 l=0.15
X3 X a_207_413# VGND VNB sky130_fd_pr__nfet_01v8 ad=0.169 pd=1.82 as=0.101 ps=0.99 w=0.65 l=0.15
X4 a_207_413# a_27_413# VPWR VPB sky130_fd_pr__pfet_01v8_hvt ad=0.0609 pd=0.71 as=0.0714 ps=0.76 w=0.42 l=0.15
X5 VPWR A_N a_27_413# VPB sky130_fd_pr__pfet_01v8_hvt ad=0.0714 pd=0.76 as=0.109 ps=1.36 w=0.42 l=0.15
X6 VGND B a_297_47# VNB sky130_fd_pr__nfet_01v8 ad=0.101 pd=0.99 as=0.0504 ps=0.66 w=0.42 l=0.15
X7 a_27_413# A_N VGND VNB sky130_fd_pr__nfet_01v8 ad=0.109 pd=1.36 as=0.109 ps=1.36 w=0.42 l=0.15
.ends

.subckt sky130_fd_sc_hd__and2_1 A B VGND VNB VPB VPWR X
X0 VPWR B a_59_75# VPB sky130_fd_pr__pfet_01v8_hvt ad=0.167 pd=1.39 as=0.0567 ps=0.69 w=0.42 l=0.15
X1 X a_59_75# VPWR VPB sky130_fd_pr__pfet_01v8_hvt ad=0.475 pd=2.95 as=0.167 ps=1.39 w=1 l=0.15
X2 VGND B a_145_75# VNB sky130_fd_pr__nfet_01v8 ad=0.112 pd=1.04 as=0.0567 ps=0.69 w=0.42 l=0.15
X3 a_59_75# A VPWR VPB sky130_fd_pr__pfet_01v8_hvt ad=0.0567 pd=0.69 as=0.118 ps=1.4 w=0.42 l=0.15
X4 X a_59_75# VGND VNB sky130_fd_pr__nfet_01v8 ad=0.182 pd=1.86 as=0.112 ps=1.04 w=0.65 l=0.15
X5 a_145_75# A a_59_75# VNB sky130_fd_pr__nfet_01v8 ad=0.0567 pd=0.69 as=0.118 ps=1.4 w=0.42 l=0.15
.ends

.subckt sky130_fd_sc_hd__a21boi_1 A1 A2 B1_N VGND VNB VPB VPWR Y
X0 a_300_297# a_27_413# Y VPB sky130_fd_pr__pfet_01v8_hvt ad=0.14 pd=1.28 as=0.265 ps=2.53 w=1 l=0.15
X1 VGND A2 a_384_47# VNB sky130_fd_pr__nfet_01v8 ad=0.172 pd=1.83 as=0.091 ps=0.93 w=0.65 l=0.15
X2 VPWR B1_N a_27_413# VPB sky130_fd_pr__pfet_01v8_hvt ad=0.111 pd=1.37 as=0.111 ps=1.37 w=0.42 l=0.15
X3 Y a_27_413# VGND VNB sky130_fd_pr__nfet_01v8 ad=0.143 pd=1.09 as=0.102 ps=0.99 w=0.65 l=0.15
X4 VPWR A1 a_300_297# VPB sky130_fd_pr__pfet_01v8_hvt ad=0.14 pd=1.28 as=0.14 ps=1.28 w=1 l=0.15
X5 a_384_47# A1 Y VNB sky130_fd_pr__nfet_01v8 ad=0.091 pd=0.93 as=0.143 ps=1.09 w=0.65 l=0.15
X6 VGND B1_N a_27_413# VNB sky130_fd_pr__nfet_01v8 ad=0.102 pd=0.99 as=0.111 ps=1.37 w=0.42 l=0.15
X7 a_300_297# A2 VPWR VPB sky130_fd_pr__pfet_01v8_hvt ad=0.265 pd=2.53 as=0.14 ps=1.28 w=1 l=0.15
.ends

.subckt sky130_fd_sc_hd__dfxtp_1 CLK D VGND VNB VPB VPWR Q
X0 Q a_1059_315# VGND VNB sky130_fd_pr__nfet_01v8 ad=0.169 pd=1.82 as=0.0878 ps=0.92 w=0.65 l=0.15
X1 a_891_413# a_193_47# a_634_159# VNB sky130_fd_pr__nfet_01v8 ad=0.0684 pd=0.74 as=0.0989 ps=0.995 w=0.36 l=0.15
X2 a_561_413# a_27_47# a_466_413# VPB sky130_fd_pr__pfet_01v8_hvt ad=0.0767 pd=0.785 as=0.0683 ps=0.745 w=0.42 l=0.15
X3 VPWR CLK a_27_47# VPB sky130_fd_pr__pfet_01v8_hvt ad=0.0864 pd=0.91 as=0.166 ps=1.8 w=0.64 l=0.15
X4 Q a_1059_315# VPWR VPB sky130_fd_pr__pfet_01v8_hvt ad=0.26 pd=2.52 as=0.135 ps=1.27 w=1 l=0.15
X5 a_381_47# D VPWR VPB sky130_fd_pr__pfet_01v8_hvt ad=0.0578 pd=0.695 as=0.109 ps=1.36 w=0.42 l=0.15
X6 VGND a_634_159# a_592_47# VNB sky130_fd_pr__nfet_01v8 ad=0.121 pd=1.09 as=0.0696 ps=0.765 w=0.42 l=0.15
X7 VPWR a_891_413# a_1059_315# VPB sky130_fd_pr__pfet_01v8_hvt ad=0.135 pd=1.27 as=0.27 ps=2.54 w=1 l=0.15
X8 a_466_413# a_193_47# a_381_47# VPB sky130_fd_pr__pfet_01v8_hvt ad=0.0683 pd=0.745 as=0.0578 ps=0.695 w=0.42 l=0.15
X9 VPWR a_634_159# a_561_413# VPB sky130_fd_pr__pfet_01v8_hvt ad=0.179 pd=1.26 as=0.0767 ps=0.785 w=0.42 l=0.15
X10 a_634_159# a_466_413# VGND VNB sky130_fd_pr__nfet_01v8 ad=0.0989 pd=0.995 as=0.121 ps=1.09 w=0.64 l=0.15
X11 a_634_159# a_466_413# VPWR VPB sky130_fd_pr__pfet_01v8_hvt ad=0.109 pd=1.08 as=0.179 ps=1.26 w=0.75 l=0.15
X12 a_975_413# a_193_47# a_891_413# VPB sky130_fd_pr__pfet_01v8_hvt ad=0.0882 pd=0.84 as=0.0567 ps=0.69 w=0.42 l=0.15
X13 VGND a_1059_315# a_1017_47# VNB sky130_fd_pr__nfet_01v8 ad=0.109 pd=1.36 as=0.066 ps=0.745 w=0.42 l=0.15
X14 a_193_47# a_27_47# VGND VNB sky130_fd_pr__nfet_01v8 ad=0.109 pd=1.36 as=0.0567 ps=0.69 w=0.42 l=0.15
X15 a_891_413# a_27_47# a_634_159# VPB sky130_fd_pr__pfet_01v8_hvt ad=0.0567 pd=0.69 as=0.109 ps=1.08 w=0.42 l=0.15
X16 a_592_47# a_193_47# a_466_413# VNB sky130_fd_pr__nfet_01v8 ad=0.0696 pd=0.765 as=0.0621 ps=0.705 w=0.36 l=0.15
X17 a_1017_47# a_27_47# a_891_413# VNB sky130_fd_pr__nfet_01v8 ad=0.066 pd=0.745 as=0.0684 ps=0.74 w=0.36 l=0.15
X18 VPWR a_1059_315# a_975_413# VPB sky130_fd_pr__pfet_01v8_hvt ad=0.111 pd=1.37 as=0.0882 ps=0.84 w=0.42 l=0.15
X19 a_466_413# a_27_47# a_381_47# VNB sky130_fd_pr__nfet_01v8 ad=0.0621 pd=0.705 as=0.0813 ps=0.83 w=0.36 l=0.15
X20 a_193_47# a_27_47# VPWR VPB sky130_fd_pr__pfet_01v8_hvt ad=0.166 pd=1.8 as=0.0864 ps=0.91 w=0.64 l=0.15
X21 VGND a_891_413# a_1059_315# VNB sky130_fd_pr__nfet_01v8 ad=0.0878 pd=0.92 as=0.169 ps=1.82 w=0.65 l=0.15
X22 a_381_47# D VGND VNB sky130_fd_pr__nfet_01v8 ad=0.0813 pd=0.83 as=0.109 ps=1.36 w=0.42 l=0.15
X23 VGND CLK a_27_47# VNB sky130_fd_pr__nfet_01v8 ad=0.0567 pd=0.69 as=0.109 ps=1.36 w=0.42 l=0.15
.ends

.subckt sky130_fd_sc_hd__a21oi_2 A1 A2 B1 VGND VNB VPB VPWR Y
X0 VGND A2 a_285_47# VNB sky130_fd_pr__nfet_01v8 ad=0.107 pd=0.98 as=0.0683 ps=0.86 w=0.65 l=0.15
X1 VGND B1 Y VNB sky130_fd_pr__nfet_01v8 ad=0.26 pd=2.1 as=0.0878 ps=0.92 w=0.65 l=0.15
X2 Y A1 a_114_47# VNB sky130_fd_pr__nfet_01v8 ad=0.091 pd=0.93 as=0.0894 ps=0.925 w=0.65 l=0.15
X3 a_114_47# A2 VGND VNB sky130_fd_pr__nfet_01v8 ad=0.0894 pd=0.925 as=0.185 ps=1.87 w=0.65 l=0.15
X4 a_27_297# B1 Y VPB sky130_fd_pr__pfet_01v8_hvt ad=0.36 pd=2.72 as=0.135 ps=1.27 w=1 l=0.15
X5 a_27_297# A1 VPWR VPB sky130_fd_pr__pfet_01v8_hvt ad=0.14 pd=1.28 as=0.14 ps=1.28 w=1 l=0.15
X6 Y B1 a_27_297# VPB sky130_fd_pr__pfet_01v8_hvt ad=0.135 pd=1.27 as=0.135 ps=1.27 w=1 l=0.15
X7 VPWR A2 a_27_297# VPB sky130_fd_pr__pfet_01v8_hvt ad=0.14 pd=1.28 as=0.28 ps=2.56 w=1 l=0.15
X8 a_27_297# A2 VPWR VPB sky130_fd_pr__pfet_01v8_hvt ad=0.135 pd=1.27 as=0.135 ps=1.27 w=1 l=0.15
X9 VPWR A1 a_27_297# VPB sky130_fd_pr__pfet_01v8_hvt ad=0.135 pd=1.27 as=0.14 ps=1.28 w=1 l=0.15
X10 a_285_47# A1 Y VNB sky130_fd_pr__nfet_01v8 ad=0.0683 pd=0.86 as=0.091 ps=0.93 w=0.65 l=0.15
X11 Y B1 VGND VNB sky130_fd_pr__nfet_01v8 ad=0.0878 pd=0.92 as=0.107 ps=0.98 w=0.65 l=0.15
.ends

.subckt sky130_fd_sc_hd__clkbuf_4 A VGND VNB VPB VPWR X
X0 VPWR A a_27_47# VPB sky130_fd_pr__pfet_01v8_hvt ad=0.165 pd=1.33 as=0.265 ps=2.53 w=1 l=0.15
X1 VGND a_27_47# X VNB sky130_fd_pr__nfet_01v8 ad=0.122 pd=1.42 as=0.0588 ps=0.7 w=0.42 l=0.15
X2 VGND a_27_47# X VNB sky130_fd_pr__nfet_01v8 ad=0.0588 pd=0.7 as=0.0588 ps=0.7 w=0.42 l=0.15
X3 X a_27_47# VPWR VPB sky130_fd_pr__pfet_01v8_hvt ad=0.14 pd=1.28 as=0.14 ps=1.28 w=1 l=0.15
X4 X a_27_47# VGND VNB sky130_fd_pr__nfet_01v8 ad=0.0588 pd=0.7 as=0.0588 ps=0.7 w=0.42 l=0.15
X5 VGND A a_27_47# VNB sky130_fd_pr__nfet_01v8 ad=0.0703 pd=0.755 as=0.111 ps=1.37 w=0.42 l=0.15
X6 VPWR a_27_47# X VPB sky130_fd_pr__pfet_01v8_hvt ad=0.3 pd=2.6 as=0.14 ps=1.28 w=1 l=0.15
X7 X a_27_47# VGND VNB sky130_fd_pr__nfet_01v8 ad=0.0588 pd=0.7 as=0.0703 ps=0.755 w=0.42 l=0.15
X8 X a_27_47# VPWR VPB sky130_fd_pr__pfet_01v8_hvt ad=0.14 pd=1.28 as=0.165 ps=1.33 w=1 l=0.15
X9 VPWR a_27_47# X VPB sky130_fd_pr__pfet_01v8_hvt ad=0.14 pd=1.28 as=0.14 ps=1.28 w=1 l=0.15
.ends

.subckt sky130_fd_sc_hd__a211oi_1 A1 A2 B1 C1 VGND VNB VPB VPWR Y
X0 a_56_297# A1 VPWR VPB sky130_fd_pr__pfet_01v8_hvt ad=0.14 pd=1.28 as=0.14 ps=1.28 w=1 l=0.15
X1 VPWR A2 a_56_297# VPB sky130_fd_pr__pfet_01v8_hvt ad=0.14 pd=1.28 as=0.265 ps=2.53 w=1 l=0.15
X2 Y C1 VGND VNB sky130_fd_pr__nfet_01v8 ad=0.172 pd=1.83 as=0.101 ps=0.96 w=0.65 l=0.15
X3 a_139_47# A2 VGND VNB sky130_fd_pr__nfet_01v8 ad=0.091 pd=0.93 as=0.266 ps=2.12 w=0.65 l=0.15
X4 a_311_297# B1 a_56_297# VPB sky130_fd_pr__pfet_01v8_hvt ad=0.155 pd=1.31 as=0.14 ps=1.28 w=1 l=0.15
X5 Y C1 a_311_297# VPB sky130_fd_pr__pfet_01v8_hvt ad=0.265 pd=2.53 as=0.155 ps=1.31 w=1 l=0.15
X6 VGND B1 Y VNB sky130_fd_pr__nfet_01v8 ad=0.101 pd=0.96 as=0.091 ps=0.93 w=0.65 l=0.15
X7 Y A1 a_139_47# VNB sky130_fd_pr__nfet_01v8 ad=0.091 pd=0.93 as=0.091 ps=0.93 w=0.65 l=0.15
.ends

.subckt sky130_fd_sc_hd__or3b_1 A B C_N VGND VNB VPB VPWR X
X0 a_109_93# C_N VGND VNB sky130_fd_pr__nfet_01v8 ad=0.109 pd=1.36 as=0.109 ps=1.36 w=0.42 l=0.15
X1 a_215_53# B VGND VNB sky130_fd_pr__nfet_01v8 ad=0.0567 pd=0.69 as=0.0567 ps=0.69 w=0.42 l=0.15
X2 VGND a_109_93# a_215_53# VNB sky130_fd_pr__nfet_01v8 ad=0.0567 pd=0.69 as=0.109 ps=1.36 w=0.42 l=0.15
X3 VGND A a_215_53# VNB sky130_fd_pr__nfet_01v8 ad=0.1 pd=0.985 as=0.0567 ps=0.69 w=0.42 l=0.15
X4 VPWR A a_369_297# VPB sky130_fd_pr__pfet_01v8_hvt ad=0.148 pd=1.34 as=0.0683 ps=0.745 w=0.42 l=0.15
X5 a_369_297# B a_297_297# VPB sky130_fd_pr__pfet_01v8_hvt ad=0.0683 pd=0.745 as=0.0441 ps=0.63 w=0.42 l=0.15
X6 X a_215_53# VPWR VPB sky130_fd_pr__pfet_01v8_hvt ad=0.275 pd=2.55 as=0.148 ps=1.34 w=1 l=0.15
X7 a_297_297# a_109_93# a_215_53# VPB sky130_fd_pr__pfet_01v8_hvt ad=0.0441 pd=0.63 as=0.109 ps=1.36 w=0.42 l=0.15
X8 a_109_93# C_N VPWR VPB sky130_fd_pr__pfet_01v8_hvt ad=0.109 pd=1.36 as=0.109 ps=1.36 w=0.42 l=0.15
X9 X a_215_53# VGND VNB sky130_fd_pr__nfet_01v8 ad=0.179 pd=1.85 as=0.1 ps=0.985 w=0.65 l=0.15
.ends

.subckt sky130_fd_sc_hd__xnor2_2 A B VGND VNB VPB VPWR Y
X0 a_27_297# B VPWR VPB sky130_fd_pr__pfet_01v8_hvt ad=0.135 pd=1.27 as=0.135 ps=1.27 w=1 l=0.15
X1 a_560_47# A VGND VNB sky130_fd_pr__nfet_01v8 ad=0.0878 pd=0.92 as=0.182 ps=1.86 w=0.65 l=0.15
X2 VGND B a_560_47# VNB sky130_fd_pr__nfet_01v8 ad=0.169 pd=1.82 as=0.0991 ps=0.955 w=0.65 l=0.15
X3 Y B a_474_297# VPB sky130_fd_pr__pfet_01v8_hvt ad=0.153 pd=1.3 as=0.135 ps=1.27 w=1 l=0.15
X4 VGND A a_27_47# VNB sky130_fd_pr__nfet_01v8 ad=0.0878 pd=0.92 as=0.0878 ps=0.92 w=0.65 l=0.15
X5 Y a_27_297# a_560_47# VNB sky130_fd_pr__nfet_01v8 ad=0.169 pd=1.82 as=0.0878 ps=0.92 w=0.65 l=0.15
X6 a_474_297# B Y VPB sky130_fd_pr__pfet_01v8_hvt ad=0.26 pd=2.52 as=0.153 ps=1.3 w=1 l=0.15
X7 VGND A a_560_47# VNB sky130_fd_pr__nfet_01v8 ad=0.0878 pd=0.92 as=0.0878 ps=0.92 w=0.65 l=0.15
X8 a_27_47# B a_27_297# VNB sky130_fd_pr__nfet_01v8 ad=0.0878 pd=0.92 as=0.0878 ps=0.92 w=0.65 l=0.15
X9 a_27_297# B a_27_47# VNB sky130_fd_pr__nfet_01v8 ad=0.0878 pd=0.92 as=0.179 ps=1.85 w=0.65 l=0.15
X10 a_27_47# A VGND VNB sky130_fd_pr__nfet_01v8 ad=0.182 pd=1.86 as=0.0878 ps=0.92 w=0.65 l=0.15
X11 VPWR B a_27_297# VPB sky130_fd_pr__pfet_01v8_hvt ad=0.135 pd=1.27 as=0.275 ps=2.55 w=1 l=0.15
X12 a_474_297# A VPWR VPB sky130_fd_pr__pfet_01v8_hvt ad=0.135 pd=1.27 as=0.135 ps=1.27 w=1 l=0.15
X13 a_560_47# a_27_297# Y VNB sky130_fd_pr__nfet_01v8 ad=0.0878 pd=0.92 as=0.169 ps=1.82 w=0.65 l=0.15
X14 VPWR A a_474_297# VPB sky130_fd_pr__pfet_01v8_hvt ad=0.135 pd=1.27 as=0.28 ps=2.56 w=1 l=0.15
X15 Y a_27_297# VPWR VPB sky130_fd_pr__pfet_01v8_hvt ad=0.135 pd=1.27 as=0.26 ps=2.52 w=1 l=0.15
X16 VPWR a_27_297# Y VPB sky130_fd_pr__pfet_01v8_hvt ad=0.28 pd=2.56 as=0.135 ps=1.27 w=1 l=0.15