*SPEF "ieee 1481-1999"
*DESIGN "inverse_clarke"
*DATE "11:11:11 Fri 11 11, 1111"
*VENDOR "OpenRCX"
*PROGRAM "Parallel Extraction"
*VERSION "1.0"
*DESIGN_FLOW "NAME_SCOPE LOCAL" "PIN_CAP NONE"
*DIVIDER /
*DELIMITER :
*BUS_DELIMITER []
*T_UNIT 1 NS
*C_UNIT 1 PF
*R_UNIT 1 OHM
*L_UNIT 1 HENRY

*NAME_MAP
*3 a[0]
*4 a[10]
*5 a[11]
*6 a[12]
*7 a[13]
*8 a[14]
*9 a[15]
*10 a[16]
*11 a[17]
*12 a[18]
*13 a[19]
*14 a[1]
*15 a[20]
*16 a[21]
*17 a[22]
*18 a[23]
*19 a[24]
*20 a[25]
*21 a[26]
*22 a[27]
*23 a[28]
*24 a[29]
*25 a[2]
*26 a[30]
*27 a[31]
*28 a[3]
*29 a[4]
*30 a[5]
*31 a[6]
*32 a[7]
*33 a[8]
*34 a[9]
*35 alpha[0]
*36 alpha[10]
*37 alpha[11]
*38 alpha[12]
*39 alpha[13]
*40 alpha[14]
*41 alpha[15]
*42 alpha[16]
*43 alpha[17]
*44 alpha[18]
*45 alpha[19]
*46 alpha[1]
*47 alpha[20]
*48 alpha[21]
*49 alpha[22]
*50 alpha[23]
*51 alpha[24]
*52 alpha[25]
*53 alpha[26]
*54 alpha[27]
*55 alpha[28]
*56 alpha[29]
*57 alpha[2]
*58 alpha[30]
*59 alpha[31]
*60 alpha[3]
*61 alpha[4]
*62 alpha[5]
*63 alpha[6]
*64 alpha[7]
*65 alpha[8]
*66 alpha[9]
*67 b[0]
*68 b[10]
*69 b[11]
*70 b[12]
*71 b[13]
*72 b[14]
*73 b[15]
*74 b[16]
*75 b[17]
*76 b[18]
*77 b[19]
*78 b[1]
*79 b[20]
*80 b[21]
*81 b[22]
*82 b[23]
*83 b[24]
*84 b[25]
*85 b[26]
*86 b[27]
*87 b[28]
*88 b[29]
*89 b[2]
*90 b[30]
*91 b[31]
*92 b[3]
*93 b[4]
*94 b[5]
*95 b[6]
*96 b[7]
*97 b[8]
*98 b[9]
*99 beta[0]
*100 beta[10]
*101 beta[11]
*102 beta[12]
*103 beta[13]
*104 beta[14]
*105 beta[15]
*106 beta[16]
*107 beta[17]
*108 beta[18]
*109 beta[19]
*110 beta[1]
*111 beta[20]
*112 beta[21]
*113 beta[22]
*114 beta[23]
*115 beta[24]
*116 beta[25]
*117 beta[26]
*118 beta[27]
*119 beta[28]
*120 beta[29]
*121 beta[2]
*122 beta[30]
*123 beta[31]
*124 beta[3]
*125 beta[4]
*126 beta[5]
*127 beta[6]
*128 beta[7]
*129 beta[8]
*130 beta[9]
*131 c[0]
*132 c[10]
*133 c[11]
*134 c[12]
*135 c[13]
*136 c[14]
*137 c[15]
*138 c[16]
*139 c[17]
*140 c[18]
*141 c[19]
*142 c[1]
*143 c[20]
*144 c[21]
*145 c[22]
*146 c[23]
*147 c[24]
*148 c[25]
*149 c[26]
*150 c[27]
*151 c[28]
*152 c[29]
*153 c[2]
*154 c[30]
*155 c[31]
*156 c[3]
*157 c[4]
*158 c[5]
*159 c[6]
*160 c[7]
*161 c[8]
*162 c[9]
*163 clk
*164 done
*165 rstb
*166 start
*167 _0000_
*168 _0001_
*169 _0002_
*170 _0003_
*171 _0004_
*172 _0005_
*173 _0006_
*174 _0007_
*175 _0008_
*176 _0009_
*177 _0010_
*178 _0011_
*179 _0012_
*180 _0013_
*181 _0014_
*182 _0015_
*183 _0016_
*184 _0017_
*185 _0018_
*186 _0019_
*187 _0020_
*188 _0021_
*189 _0022_
*190 _0023_
*191 _0024_
*192 _0025_
*193 _0026_
*194 _0027_
*195 _0028_
*196 _0029_
*197 _0030_
*198 _0031_
*199 _0032_
*200 _0033_
*201 _0034_
*202 _0035_
*203 _0036_
*204 _0037_
*205 _0038_
*206 _0039_
*207 _0040_
*208 _0041_
*209 _0042_
*210 _0043_
*211 _0044_
*212 _0045_
*213 _0046_
*214 _0047_
*215 _0048_
*216 _0049_
*217 _0050_
*218 _0051_
*219 _0052_
*220 _0053_
*221 _0054_
*222 _0055_
*223 _0056_
*224 _0057_
*225 _0058_
*226 _0059_
*227 _0060_
*228 _0061_
*229 _0062_
*230 _0063_
*231 _0064_
*232 _0065_
*233 _0066_
*234 _0067_
*235 _0068_
*236 _0069_
*237 _0070_
*238 _0071_
*239 _0072_
*240 _0073_
*241 _0074_
*242 _0075_
*243 _0076_
*244 _0077_
*245 _0078_
*246 _0079_
*247 _0080_
*248 _0081_
*249 _0082_
*250 _0083_
*251 _0084_
*252 _0085_
*253 _0086_
*254 _0087_
*255 _0088_
*256 _0089_
*257 _0090_
*258 _0091_
*259 _0092_
*260 _0093_
*261 _0094_
*262 _0095_
*263 _0096_
*264 _0097_
*265 _0098_
*266 _0099_
*267 _0100_
*268 _0101_
*269 _0102_
*270 _0103_
*271 _0104_
*272 _0105_
*273 _0106_
*274 _0107_
*275 _0108_
*276 _0109_
*277 _0110_
*278 _0111_
*279 _0112_
*280 _0113_
*281 _0114_
*282 _0115_
*283 _0116_
*284 _0117_
*285 _0118_
*286 _0119_
*287 _0120_
*288 _0121_
*289 _0122_
*290 _0123_
*291 _0124_
*292 _0125_
*293 _0126_
*294 _0127_
*295 _0128_
*296 _0129_
*297 _0130_
*298 _0131_
*299 _0132_
*300 _0133_
*301 _0134_
*302 _0135_
*303 _0136_
*304 _0137_
*305 _0138_
*306 _0139_
*307 _0140_
*308 _0141_
*309 _0142_
*310 _0143_
*311 _0144_
*312 _0145_
*313 _0146_
*314 _0147_
*315 _0148_
*316 _0149_
*317 _0150_
*318 _0151_
*319 _0152_
*320 _0153_
*321 _0154_
*322 _0155_
*323 _0156_
*324 _0157_
*325 _0158_
*326 _0159_
*327 _0160_
*328 _0161_
*329 _0162_
*330 _0163_
*331 _0164_
*332 _0165_
*333 _0166_
*334 _0167_
*335 _0168_
*336 _0169_
*337 _0170_
*338 _0171_
*339 _0172_
*340 _0173_
*341 _0174_
*342 _0175_
*343 _0176_
*344 _0177_
*345 _0178_
*346 _0179_
*347 _0180_
*348 _0181_
*349 _0182_
*350 _0183_
*351 _0184_
*352 _0185_
*353 _0186_
*354 _0187_
*355 _0188_
*356 _0189_
*357 _0190_
*358 _0191_
*359 _0192_
*360 _0193_
*361 _0194_
*362 _0195_
*363 _0196_
*364 _0197_
*365 _0198_
*366 _0199_
*367 _0200_
*368 _0201_
*369 _0202_
*370 _0203_
*371 _0204_
*372 _0205_
*373 _0206_
*374 _0207_
*375 _0208_
*376 _0209_
*377 _0210_
*378 _0211_
*379 _0212_
*380 _0213_
*381 _0214_
*382 _0215_
*383 _0216_
*384 _0217_
*385 _0218_
*386 _0219_
*387 _0220_
*388 _0221_
*389 _0222_
*390 _0223_
*391 _0224_
*392 _0225_
*393 _0226_
*394 _0227_
*395 _0228_
*396 _0229_
*397 _0230_
*398 _0231_
*399 _0232_
*400 _0233_
*401 _0234_
*402 _0235_
*403 _0236_
*404 _0237_
*405 _0238_
*406 _0239_
*407 _0240_
*408 _0241_
*409 _0242_
*410 _0243_
*411 _0244_
*412 _0245_
*413 _0246_
*414 _0247_
*415 _0248_
*416 _0249_
*417 _0250_
*418 _0251_
*419 _0252_
*420 _0253_
*421 _0254_
*422 _0255_
*423 _0256_
*424 _0257_
*425 _0258_
*426 _0259_
*427 _0260_
*428 _0261_
*429 _0262_
*430 _0263_
*431 _0264_
*432 _0265_
*433 _0266_
*434 _0267_
*435 _0268_
*436 _0269_
*437 _0270_
*438 _0271_
*439 _0272_
*440 _0273_
*441 _0274_
*442 _0275_
*443 _0276_
*444 _0277_
*445 _0278_
*446 _0279_
*447 _0280_
*448 _0281_
*449 _0282_
*450 _0283_
*451 _0284_
*452 _0285_
*453 _0286_
*454 _0287_
*455 _0288_
*456 _0289_
*457 _0290_
*458 _0291_
*459 _0292_
*460 _0293_
*461 _0294_
*462 _0295_
*463 _0296_
*464 _0297_
*465 _0298_
*466 _0299_
*467 _0300_
*468 _0301_
*469 _0302_
*470 _0303_
*471 _0304_
*472 _0305_
*473 _0306_
*474 _0307_
*475 _0308_
*476 _0309_
*477 _0310_
*478 _0311_
*479 _0312_
*480 _0313_
*481 _0314_
*482 _0315_
*483 _0316_
*484 _0317_
*485 _0318_
*486 _0319_
*487 _0320_
*488 _0321_
*489 _0322_
*490 _0323_
*491 _0324_
*492 _0325_
*493 _0326_
*494 _0327_
*495 _0328_
*496 _0329_
*497 _0330_
*498 _0331_
*499 _0332_
*500 _0333_
*501 _0334_
*502 _0335_
*503 _0336_
*504 _0337_
*505 _0338_
*506 _0339_
*507 _0340_
*508 _0341_
*509 _0342_
*510 _0343_
*511 _0344_
*512 _0345_
*513 _0346_
*514 _0347_
*515 _0348_
*516 _0349_
*517 _0350_
*518 _0351_
*519 _0352_
*520 _0353_
*521 _0354_
*522 _0355_
*523 _0356_
*524 _0357_
*525 _0358_
*526 _0359_
*527 _0360_
*528 _0361_
*529 _0362_
*530 _0363_
*531 _0364_
*532 _0365_
*533 _0366_
*534 _0367_
*535 _0368_
*536 _0369_
*537 _0370_
*538 _0371_
*539 _0372_
*540 _0373_
*541 _0374_
*542 _0375_
*543 _0376_
*544 _0377_
*545 _0378_
*546 _0379_
*547 _0380_
*548 _0381_
*549 _0382_
*550 _0383_
*551 _0384_
*552 _0385_
*553 _0386_
*554 _0387_
*555 _0388_
*556 _0389_
*557 _0390_
*558 _0391_
*559 _0392_
*560 _0393_
*561 _0394_
*562 _0395_
*563 _0396_
*564 _0397_
*565 _0398_
*566 _0399_
*567 _0400_
*568 _0401_
*569 _0402_
*570 _0403_
*571 _0404_
*572 _0405_
*573 _0406_
*574 _0407_
*575 _0408_
*576 _0409_
*577 _0410_
*578 _0411_
*579 _0412_
*580 _0413_
*581 _0414_
*582 _0415_
*583 _0416_
*584 _0417_
*585 _0418_
*586 _0419_
*587 _0420_
*588 _0421_
*589 _0422_
*590 _0423_
*591 _0424_
*592 _0425_
*593 _0426_
*594 _0427_
*595 _0428_
*596 _0429_
*597 _0430_
*598 _0431_
*599 _0432_
*600 _0433_
*601 _0434_
*602 _0435_
*603 _0436_
*604 _0437_
*605 _0438_
*606 _0439_
*607 _0440_
*608 _0441_
*609 _0442_
*610 _0443_
*611 _0444_
*612 _0445_
*613 _0446_
*614 _0447_
*615 _0448_
*616 _0449_
*617 _0450_
*618 _0451_
*619 _0452_
*620 _0453_
*621 _0454_
*622 _0455_
*623 _0456_
*624 _0457_
*625 _0458_
*626 _0459_
*627 _0460_
*628 _0461_
*629 _0462_
*630 _0463_
*631 _0464_
*632 _0465_
*633 _0466_
*634 _0467_
*635 _0468_
*636 _0469_
*637 _0470_
*638 _0471_
*639 _0472_
*640 _0473_
*641 _0474_
*642 _0475_
*643 _0476_
*644 _0477_
*645 _0478_
*646 _0479_
*647 _0480_
*648 _0481_
*649 _0482_
*650 _0483_
*651 _0484_
*652 _0485_
*653 _0486_
*654 _0487_
*655 _0488_
*656 _0489_
*657 _0490_
*658 _0491_
*659 _0492_
*660 _0493_
*661 _0494_
*662 _0495_
*663 _0496_
*664 _0497_
*665 _0498_
*666 _0499_
*667 _0500_
*668 _0501_
*669 _0502_
*670 _0503_
*671 _0504_
*672 _0505_
*673 _0506_
*674 _0507_
*675 _0508_
*676 _0509_
*677 _0510_
*678 _0511_
*679 _0512_
*680 _0513_
*681 _0514_
*682 _0515_
*683 _0516_
*684 _0517_
*685 _0518_
*686 _0519_
*687 _0520_
*688 _0521_
*689 _0522_
*690 _0523_
*691 _0524_
*692 _0525_
*693 _0526_
*694 _0527_
*695 _0528_
*696 _0529_
*697 _0530_
*698 _0531_
*699 _0532_
*700 _0533_
*701 _0534_
*702 _0535_
*703 _0536_
*704 _0537_
*705 _0538_
*706 _0539_
*707 _0540_
*708 _0541_
*709 _0542_
*710 _0543_
*711 _0544_
*712 _0545_
*713 _0546_
*714 _0547_
*715 _0548_
*716 _0549_
*717 _0550_
*718 _0551_
*719 _0552_
*720 _0553_
*721 _0554_
*722 _0555_
*723 _0556_
*724 _0557_
*725 _0558_
*726 _0559_
*727 _0560_
*728 _0561_
*729 _0562_
*730 _0563_
*731 _0564_
*732 _0565_
*733 _0566_
*734 _0567_
*735 _0568_
*736 _0569_
*737 _0570_
*738 _0571_
*739 _0572_
*740 _0573_
*741 _0574_
*742 _0575_
*743 _0576_
*744 _0577_
*745 _0578_
*746 _0579_
*747 _0580_
*748 _0581_
*749 _0582_
*750 _0583_
*751 _0584_
*752 _0585_
*753 _0586_
*754 _0587_
*755 _0588_
*756 _0589_
*757 _0590_
*758 _0591_
*759 _0592_
*760 _0593_
*761 _0594_
*762 _0595_
*763 _0596_
*764 _0597_
*765 _0598_
*766 _0599_
*767 _0600_
*768 _0601_
*769 _0602_
*770 _0603_
*771 _0604_
*772 _0605_
*773 _0606_
*774 _0607_
*775 _0608_
*776 _0609_
*777 _0610_
*778 _0611_
*779 _0612_
*780 _0613_
*781 _0614_
*782 _0615_
*783 _0616_
*784 _0617_
*785 _0618_
*786 _0619_
*787 _0620_
*788 _0621_
*789 _0622_
*790 _0623_
*791 _0624_
*792 _0625_
*793 _0626_
*794 _0627_
*795 _0628_
*796 _0629_
*797 _0630_
*798 _0631_
*799 _0632_
*800 _0633_
*801 _0634_
*802 _0635_
*803 _0636_
*804 _0637_
*805 _0638_
*806 _0639_
*807 _0640_
*808 _0641_
*809 _0642_
*810 _0643_
*811 _0644_
*812 _0645_
*813 _0646_
*814 _0647_
*815 _0648_
*816 _0649_
*817 _0650_
*818 _0651_
*819 _0652_
*820 _0653_
*821 _0654_
*822 _0655_
*823 _0656_
*824 _0657_
*825 _0658_
*826 _0659_
*827 _0660_
*828 _0661_
*829 _0662_
*830 _0663_
*831 _0664_
*832 _0665_
*833 _0666_
*834 _0667_
*835 _0668_
*836 _0669_
*837 _0670_
*838 _0671_
*839 _0672_
*840 _0673_
*841 _0674_
*842 _0675_
*843 _0676_
*844 _0677_
*845 _0678_
*846 _0679_
*847 _0680_
*848 _0681_
*849 _0682_
*850 _0683_
*851 _0684_
*852 _0685_
*853 _0686_
*854 _0687_
*855 _0688_
*856 _0689_
*857 _0690_
*858 _0691_
*859 _0692_
*860 _0693_
*861 _0694_
*862 _0695_
*863 _0696_
*864 _0697_
*865 _0698_
*866 _0699_
*867 _0700_
*868 _0701_
*869 _0702_
*870 _0703_
*871 _0704_
*872 _0705_
*873 _0706_
*874 _0707_
*875 _0708_
*876 _0709_
*877 _0710_
*878 _0711_
*879 _0712_
*880 _0713_
*881 _0714_
*882 _0715_
*883 _0716_
*884 _0717_
*885 _0718_
*886 _0719_
*887 _0720_
*888 _0721_
*889 _0722_
*890 _0723_
*891 _0724_
*892 _0725_
*893 _0726_
*894 _0727_
*895 _0728_
*896 _0729_
*897 _0730_
*898 _0731_
*899 _0732_
*900 _0733_
*901 _0734_
*902 _0735_
*903 _0736_
*904 _0737_
*905 _0738_
*906 _0739_
*907 _0740_
*908 _0741_
*909 _0742_
*910 _0743_
*911 _0744_
*912 _0745_
*913 _0746_
*914 _0747_
*915 _0748_
*916 _0749_
*917 _0750_
*918 _0751_
*919 _0752_
*920 _0753_
*921 _0754_
*922 _0755_
*923 _0756_
*924 _0757_
*925 _0758_
*926 _0759_
*927 _0760_
*928 _0761_
*929 _0762_
*930 _0763_
*931 _0764_
*932 _0765_
*933 _0766_
*934 _0767_
*935 _0768_
*936 _0769_
*937 _0770_
*938 _0771_
*939 _0772_
*940 _0773_
*941 _0774_
*942 _0775_
*943 _0776_
*944 _0777_
*945 _0778_
*946 _0779_
*947 _0780_
*948 _0781_
*949 _0782_
*950 _0783_
*951 _0784_
*952 _0785_
*953 _0786_
*954 _0787_
*955 _0788_
*956 _0789_
*957 _0790_
*958 _0791_
*959 _0792_
*960 _0793_
*961 _0794_
*962 _0795_
*963 _0796_
*964 _0797_
*965 _0798_
*966 _0799_
*967 _0800_
*968 _0801_
*969 _0802_
*970 _0803_
*971 _0804_
*972 _0805_
*973 _0806_
*974 _0807_
*975 _0808_
*976 _0809_
*977 _0810_
*978 _0811_
*979 _0812_
*980 _0813_
*981 _0814_
*982 _0815_
*983 _0816_
*984 _0817_
*985 _0818_
*986 _0819_
*987 _0820_
*988 _0821_
*989 _0822_
*990 _0823_
*991 _0824_
*992 _0825_
*993 _0826_
*994 _0827_
*995 _0828_
*996 _0829_
*997 _0830_
*998 _0831_
*999 _0832_
*1000 _0833_
*1001 _0834_
*1002 _0835_
*1003 _0836_
*1004 _0837_
*1005 _0838_
*1006 _0839_
*1007 _0840_
*1008 _0841_
*1009 _0842_
*1010 _0843_
*1011 _0844_
*1012 _0845_
*1013 _0846_
*1014 _0847_
*1015 _0848_
*1016 _0849_
*1017 _0850_
*1018 _0851_
*1019 _0852_
*1020 _0853_
*1021 _0854_
*1022 _0855_
*1023 _0856_
*1024 _0857_
*1025 _0858_
*1026 _0859_
*1027 _0860_
*1028 _0861_
*1029 _0862_
*1030 _0863_
*1031 _0864_
*1032 _0865_
*1033 _0866_
*1034 _0867_
*1035 _0868_
*1036 _0869_
*1037 _0870_
*1038 _0871_
*1039 _0872_
*1040 _0873_
*1041 _0874_
*1042 _0875_
*1043 _0876_
*1044 _0877_
*1045 _0878_
*1046 _0879_
*1047 _0880_
*1048 _0881_
*1049 _0882_
*1050 _0883_
*1051 _0884_
*1052 _0885_
*1053 _0886_
*1054 _0887_
*1055 _0888_
*1056 _0889_
*1057 _0890_
*1058 _0891_
*1059 _0892_
*1060 _0893_
*1061 _0894_
*1062 _0895_
*1063 _0896_
*1064 _0897_
*1065 _0898_
*1066 _0899_
*1067 _0900_
*1068 _0901_
*1069 _0902_
*1070 _0903_
*1071 _0904_
*1072 _0905_
*1073 _0906_
*1074 _0907_
*1075 _0908_
*1076 _0909_
*1077 _0910_
*1078 _0911_
*1079 _0912_
*1080 _0913_
*1081 _0914_
*1082 _0915_
*1083 _0916_
*1084 _0917_
*1085 _0918_
*1086 _0919_
*1087 _0920_
*1088 _0921_
*1089 _0922_
*1090 _0923_
*1091 _0924_
*1092 _0925_
*1093 _0926_
*1094 _0927_
*1095 _0928_
*1096 _0929_
*1097 _0930_
*1098 _0931_
*1099 _0932_
*1100 _0933_
*1101 _0934_
*1102 _0935_
*1103 _0936_
*1104 _0937_
*1105 _0938_
*1106 _0939_
*1107 _0940_
*1108 _0941_
*1109 _0942_
*1110 _0943_
*1111 _0944_
*1112 _0945_
*1113 _0946_
*1114 _0947_
*1115 _0948_
*1116 _0949_
*1117 _0950_
*1118 _0951_
*1119 _0952_
*1120 _0953_
*1121 _0954_
*1122 _0955_
*1123 _0956_
*1124 _0957_
*1125 _0958_
*1126 _0959_
*1127 _0960_
*1128 _0961_
*1129 _0962_
*1130 _0963_
*1131 _0964_
*1132 _0965_
*1133 _0966_
*1134 _0967_
*1135 _0968_
*1136 _0969_
*1137 _0970_
*1138 _0971_
*1139 _0972_
*1140 _0973_
*1141 _0974_
*1142 _0975_
*1143 _0976_
*1144 _0977_
*1145 _0978_
*1146 _0979_
*1147 _0980_
*1148 _0981_
*1149 _0982_
*1150 _0983_
*1151 _0984_
*1152 _0985_
*1153 _0986_
*1154 _0987_
*1155 _0988_
*1156 _0989_
*1157 _0990_
*1158 _0991_
*1159 _0992_
*1160 _0993_
*1161 _0994_
*1162 _0995_
*1163 _0996_
*1164 _0997_
*1165 _0998_
*1166 _0999_
*1167 _1000_
*1168 _1001_
*1169 _1002_
*1170 _1003_
*1171 _1004_
*1172 _1005_
*1173 _1006_
*1174 _1007_
*1175 _1008_
*1176 _1009_
*1177 _1010_
*1178 _1011_
*1179 _1012_
*1180 _1013_
*1181 _1014_
*1182 _1015_
*1183 _1016_
*1184 _1017_
*1185 _1018_
*1186 _1019_
*1187 _1020_
*1188 _1021_
*1189 _1022_
*1190 _1023_
*1191 _1024_
*1192 _1025_
*1193 _1026_
*1194 _1027_
*1195 _1028_
*1196 _1029_
*1197 _1030_
*1198 _1031_
*1199 _1032_
*1200 _1033_
*1201 _1034_
*1202 _1035_
*1203 _1036_
*1204 _1037_
*1205 _1038_
*1206 _1039_
*1207 _1040_
*1208 _1041_
*1209 _1042_
*1210 _1043_
*1211 _1044_
*1212 _1045_
*1213 _1046_
*1214 _1047_
*1215 _1048_
*1216 _1049_
*1217 _1050_
*1218 _1051_
*1219 _1052_
*1220 _1053_
*1221 _1054_
*1222 _1055_
*1223 _1056_
*1224 _1057_
*1225 _1058_
*1226 _1059_
*1227 _1060_
*1228 _1061_
*1229 _1062_
*1230 _1063_
*1231 _1064_
*1232 _1065_
*1233 _1066_
*1234 _1067_
*1235 _1068_
*1236 _1069_
*1237 _1070_
*1238 _1071_
*1239 _1072_
*1240 _1073_
*1241 _1074_
*1242 _1075_
*1243 _1076_
*1244 _1077_
*1245 _1078_
*1246 _1079_
*1247 _1080_
*1248 _1081_
*1249 _1082_
*1250 _1083_
*1251 _1084_
*1252 _1085_
*1253 _1086_
*1254 _1087_
*1255 _1088_
*1256 _1089_
*1257 _1090_
*1258 _1091_
*1259 _1092_
*1260 _1093_
*1261 _1094_
*1262 _1095_
*1263 _1096_
*1264 _1097_
*1265 _1098_
*1266 _1099_
*1267 _1100_
*1268 _1101_
*1269 _1102_
*1270 _1103_
*1271 _1104_
*1272 _1105_
*1273 _1106_
*1274 _1107_
*1275 _1108_
*1276 _1109_
*1277 _1110_
*1278 _1111_
*1279 _1112_
*1280 _1113_
*1281 _1114_
*1282 _1115_
*1283 _1116_
*1284 _1117_
*1285 _1118_
*1286 _1119_
*1287 _1120_
*1288 _1121_
*1289 _1122_
*1290 _1123_
*1291 _1124_
*1292 _1125_
*1293 _1126_
*1294 _1127_
*1295 _1128_
*1296 _1129_
*1297 _1130_
*1298 _1131_
*1299 _1132_
*1300 _1133_
*1301 _1134_
*1302 _1135_
*1303 _1136_
*1304 _1137_
*1305 _1138_
*1306 _1139_
*1307 _1140_
*1308 _1141_
*1309 _1142_
*1310 _1143_
*1311 _1144_
*1312 _1145_
*1313 _1146_
*1314 _1147_
*1315 _1148_
*1316 _1149_
*1317 _1150_
*1318 _1151_
*1319 _1152_
*1320 _1153_
*1321 _1154_
*1322 _1155_
*1323 _1156_
*1324 _1157_
*1325 _1158_
*1326 _1159_
*1327 _1160_
*1328 _1161_
*1329 _1162_
*1330 _1163_
*1331 _1164_
*1332 _1165_
*1333 _1166_
*1334 _1167_
*1335 _1168_
*1336 _1169_
*1337 _1170_
*1338 _1171_
*1339 _1172_
*1340 _1173_
*1341 _1174_
*1342 _1175_
*1343 _1176_
*1344 _1177_
*1345 _1178_
*1346 _1179_
*1347 _1180_
*1348 _1181_
*1349 _1182_
*1350 _1183_
*1351 _1184_
*1352 _1185_
*1353 _1186_
*1354 _1187_
*1355 _1188_
*1356 _1189_
*1357 _1190_
*1358 _1191_
*1359 _1192_
*1360 _1193_
*1361 _1194_
*1362 _1195_
*1363 _1196_
*1364 _1197_
*1365 _1198_
*1366 _1199_
*1367 _1200_
*1368 _1201_
*1369 _1202_
*1370 _1203_
*1371 _1204_
*1372 _1205_
*1373 _1206_
*1374 _1207_
*1375 _1208_
*1376 _1209_
*1377 _1210_
*1378 _1211_
*1379 _1212_
*1380 _1213_
*1381 _1214_
*1382 _1215_
*1383 _1216_
*1384 _1217_
*1385 _1218_
*1386 _1219_
*1387 _1220_
*1388 _1221_
*1389 _1222_
*1390 _1223_
*1391 _1224_
*1392 _1225_
*1393 _1226_
*1394 _1227_
*1395 _1228_
*1396 _1229_
*1397 _1230_
*1398 _1231_
*1399 _1232_
*1400 _1233_
*1401 _1234_
*1402 _1235_
*1403 _1236_
*1404 _1237_
*1405 _1238_
*1406 _1239_
*1407 _1240_
*1408 _1241_
*1409 _1242_
*1410 _1243_
*1411 _1244_
*1412 _1245_
*1413 _1246_
*1414 _1247_
*1415 _1248_
*1416 _1249_
*1417 _1250_
*1418 _1251_
*1419 _1252_
*1420 _1253_
*1421 _1254_
*1422 _1255_
*1423 _1256_
*1424 _1257_
*1425 _1258_
*1426 _1259_
*1427 _1260_
*1428 _1261_
*1429 _1262_
*1430 _1263_
*1431 _1264_
*1432 _1265_
*1433 _1266_
*1434 _1267_
*1435 _1268_
*1436 _1269_
*1437 _1270_
*1438 _1271_
*1439 _1272_
*1440 _1273_
*1441 _1274_
*1442 _1275_
*1443 _1276_
*1444 _1277_
*1445 _1278_
*1446 _1279_
*1447 _1280_
*1448 _1281_
*1449 _1282_
*1450 _1283_
*1451 _1284_
*1452 _1285_
*1453 _1286_
*1454 _1287_
*1455 _1288_
*1456 _1289_
*1457 _1290_
*1458 _1291_
*1459 _1292_
*1460 _1293_
*1461 _1294_
*1462 _1295_
*1463 _1296_
*1464 _1297_
*1465 _1298_
*1466 _1299_
*1467 _1300_
*1468 _1301_
*1469 _1302_
*1470 _1303_
*1471 _1304_
*1472 _1305_
*1473 _1306_
*1474 _1307_
*1475 _1308_
*1476 _1309_
*1477 _1310_
*1478 _1311_
*1479 _1312_
*1480 _1313_
*1481 _1314_
*1482 _1315_
*1483 _1316_
*1484 _1317_
*1485 _1318_
*1486 _1319_
*1487 _1320_
*1488 _1321_
*1489 _1322_
*1490 _1323_
*1491 _1324_
*1492 _1325_
*1493 _1326_
*1494 _1327_
*1495 _1328_
*1496 _1329_
*1497 _1330_
*1498 _1331_
*1499 _1332_
*1500 _1333_
*1501 _1334_
*1502 _1335_
*1503 _1336_
*1504 _1337_
*1505 _1338_
*1506 _1339_
*1507 _1340_
*1508 _1341_
*1509 _1342_
*1510 _1343_
*1511 _1344_
*1512 _1345_
*1513 _1346_
*1514 _1347_
*1515 _1348_
*1516 _1349_
*1517 _1350_
*1518 _1351_
*1519 _1352_
*1520 _1353_
*1521 _1354_
*1522 _1355_
*1523 _1356_
*1524 _1357_
*1525 _1358_
*1526 _1359_
*1527 _1360_
*1528 _1361_
*1529 _1362_
*1530 _1363_
*1531 _1364_
*1532 _1365_
*1533 _1366_
*1534 _1367_
*1535 _1368_
*1536 _1369_
*1537 _1370_
*1538 _1371_
*1539 _1372_
*1540 _1373_
*1541 _1374_
*1542 _1375_
*1543 _1376_
*1544 _1377_
*1545 _1378_
*1546 _1379_
*1547 _1380_
*1548 _1381_
*1549 _1382_
*1550 _1383_
*1551 _1384_
*1552 _1385_
*1553 _1386_
*1554 _1387_
*1555 _1388_
*1556 _1389_
*1557 _1390_
*1558 _1391_
*1559 _1392_
*1560 _1393_
*1561 _1394_
*1562 _1395_
*1563 _1396_
*1564 _1397_
*1565 _1398_
*1566 _1399_
*1567 _1400_
*1568 _1401_
*1569 _1402_
*1570 _1403_
*1571 _1404_
*1572 _1405_
*1573 _1406_
*1574 _1407_
*1575 _1408_
*1576 _1409_
*1577 _1410_
*1578 _1411_
*1579 _1412_
*1580 _1413_
*1581 _1414_
*1582 _1415_
*1583 _1416_
*1584 _1417_
*1585 _1418_
*1586 _1419_
*1587 _1420_
*1588 _1421_
*1589 _1422_
*1590 _1423_
*1591 _1424_
*1592 _1425_
*1593 _1426_
*1594 _1427_
*1595 _1428_
*1596 _1429_
*1597 _1430_
*1598 _1431_
*1599 _1432_
*1600 _1433_
*1601 _1434_
*1602 _1435_
*1603 _1436_
*1604 _1437_
*1605 _1438_
*1606 _1439_
*1607 _1440_
*1608 _1441_
*1609 _1442_
*1610 _1443_
*1611 _1444_
*1612 _1445_
*1613 _1446_
*1614 _1447_
*1615 _1448_
*1616 _1449_
*1617 _1450_
*1618 _1451_
*1619 _1452_
*1620 _1453_
*1621 _1454_
*1622 _1455_
*1623 _1456_
*1624 _1457_
*1625 _1458_
*1626 _1459_
*1627 _1460_
*1628 _1461_
*1629 _1462_
*1630 _1463_
*1631 _1464_
*1632 _1465_
*1633 _1466_
*1634 _1467_
*1635 _1468_
*1636 _1469_
*1637 _1470_
*1638 _1471_
*1639 _1472_
*1640 _1473_
*1641 _1474_
*1642 _1475_
*1643 _1476_
*1644 _1477_
*1645 _1478_
*1646 _1479_
*1647 _1480_
*1648 _1481_
*1649 _1482_
*1650 _1483_
*1651 _1484_
*1652 _1485_
*1653 _1486_
*1654 _1487_
*1655 _1488_
*1656 _1489_
*1657 _1490_
*1658 _1491_
*1659 _1492_
*1660 _1493_
*1661 _1494_
*1662 _1495_
*1663 _1496_
*1664 _1497_
*1665 _1498_
*1666 _1499_
*1667 _1500_
*1668 _1501_
*1669 _1502_
*1670 _1503_
*1671 _1504_
*1672 _1505_
*1673 _1506_
*1674 _1507_
*1675 _1508_
*1676 _1509_
*1677 _1510_
*1678 _1511_
*1679 _1512_
*1680 _1513_
*1681 _1514_
*1682 _1515_
*1683 _1516_
*1684 _1517_
*1685 _1518_
*1686 _1519_
*1687 _1520_
*1688 _1521_
*1689 _1522_
*1690 _1523_
*1691 _1524_
*1692 _1525_
*1693 _1526_
*1694 _1527_
*1695 _1528_
*1696 _1529_
*1697 _1530_
*1698 _1531_
*1699 _1532_
*1700 _1533_
*1701 _1534_
*1702 _1535_
*1703 _1536_
*1704 _1537_
*1705 _1538_
*1706 _1539_
*1707 _1540_
*1708 _1541_
*1709 _1542_
*1710 _1543_
*1711 _1544_
*1712 _1545_
*1713 _1546_
*1714 _1547_
*1715 _1548_
*1716 _1549_
*1717 _1550_
*1718 _1551_
*1719 _1552_
*1720 _1553_
*1721 _1554_
*1722 _1555_
*1723 _1556_
*1724 _1557_
*1725 _1558_
*1726 _1559_
*1727 _1560_
*1728 _1561_
*1729 _1562_
*1730 _1563_
*1731 _1564_
*1732 _1565_
*1733 _1566_
*1734 _1567_
*1735 _1568_
*1736 _1569_
*1737 _1570_
*1738 _1571_
*1739 _1572_
*1740 _1573_
*1741 _1574_
*1742 _1575_
*1743 _1576_
*1744 _1577_
*1745 _1578_
*1746 _1579_
*1747 _1580_
*1748 _1581_
*1749 _1582_
*1750 _1583_
*1751 _1584_
*1752 _1585_
*1753 _1586_
*1754 _1587_
*1755 _1588_
*1756 _1589_
*1757 _1590_
*1758 _1591_
*1759 _1592_
*1760 _1593_
*1761 _1594_
*1762 _1595_
*1763 _1596_
*1764 _1597_
*1765 _1598_
*1766 _1599_
*1767 _1600_
*1768 _1601_
*1769 _1602_
*1770 _1603_
*1771 _1604_
*1772 _1605_
*1773 _1606_
*1774 _1607_
*1775 _1608_
*1776 _1609_
*1777 _1610_
*1778 _1611_
*1779 _1612_
*1780 _1613_
*1781 _1614_
*1782 _1615_
*1783 _1616_
*1784 _1617_
*1785 _1618_
*1786 _1619_
*1787 _1620_
*1788 _1621_
*1789 _1622_
*1790 _1623_
*1791 _1624_
*1792 _1625_
*1793 _1626_
*1794 _1627_
*1795 _1628_
*1796 _1629_
*1797 _1630_
*1798 _1631_
*1799 _1632_
*1800 _1633_
*1801 _1634_
*1802 _1635_
*1803 _1636_
*1804 _1637_
*1805 _1638_
*1806 _1639_
*1807 _1640_
*1808 _1641_
*1809 _1642_
*1810 _1643_
*1811 _1644_
*1812 _1645_
*1813 _1646_
*1814 _1647_
*1815 _1648_
*1816 _1649_
*1817 _1650_
*1818 _1651_
*1819 _1652_
*1820 _1653_
*1821 _1654_
*1822 _1655_
*1823 _1656_
*1824 _1657_
*1825 _1658_
*1826 _1659_
*1827 _1660_
*1828 _1661_
*1829 _1662_
*1830 _1663_
*1831 _1664_
*1832 _1665_
*1833 _1666_
*1834 _1667_
*1835 _1668_
*1836 _1669_
*1837 _1670_
*1838 _1671_
*1839 _1672_
*1840 _1673_
*1841 _1674_
*1842 _1675_
*1843 _1676_
*1844 _1677_
*1845 _1678_
*1846 _1679_
*1847 _1680_
*1848 _1681_
*1849 _1682_
*1850 _1683_
*1851 _1684_
*1852 _1685_
*1853 _1686_
*1854 _1687_
*1855 _1688_
*1856 _1689_
*1857 _1690_
*1858 _1691_
*1859 _1692_
*1860 _1693_
*1861 _1694_
*1862 _1695_
*1863 _1696_
*1864 _1697_
*1865 _1698_
*1866 _1699_
*1867 _1700_
*1868 _1701_
*1869 _1702_
*1870 _1703_
*1871 _1704_
*1872 _1705_
*1873 _1706_
*1874 _1707_
*1875 _1708_
*1876 _1709_
*1877 _1710_
*1878 _1711_
*1879 _1712_
*1880 _1713_
*1881 _1714_
*1882 _1715_
*1883 _1716_
*1884 _1717_
*1885 _1718_
*1886 _1719_
*1887 _1720_
*1888 _1721_
*1889 _1722_
*1890 _1723_
*1891 _1724_
*1892 _1725_
*1893 _1726_
*1894 _1727_
*1895 _1728_
*1896 _1729_
*1897 _1730_
*1898 _1731_
*1899 _1732_
*1900 _1733_
*1901 _1734_
*1902 _1735_
*1903 _1736_
*1904 _1737_
*1905 _1738_
*1906 _1739_
*1907 _1740_
*1908 _1741_
*1909 _1742_
*1910 _1743_
*1911 _1744_
*1912 _1745_
*1913 _1746_
*1914 _1747_
*1915 _1748_
*1916 _1749_
*1917 _1750_
*1918 _1751_
*1919 _1752_
*1920 _1753_
*1921 _1754_
*1922 _1755_
*1923 _1756_
*1924 _1757_
*1925 clknet_0_clk
*1926 clknet_3_0__leaf_clk
*1927 clknet_3_1__leaf_clk
*1928 clknet_3_2__leaf_clk
*1929 clknet_3_3__leaf_clk
*1930 clknet_3_4__leaf_clk
*1931 clknet_3_5__leaf_clk
*1932 clknet_3_6__leaf_clk
*1933 clknet_3_7__leaf_clk
*1934 net1
*1935 net10
*1936 net100
*1937 net101
*1938 net102
*1939 net103
*1940 net104
*1941 net105
*1942 net106
*1943 net107
*1944 net108
*1945 net109
*1946 net11
*1947 net110
*1948 net111
*1949 net112
*1950 net113
*1951 net114
*1952 net115
*1953 net116
*1954 net117
*1955 net118
*1956 net119
*1957 net12
*1958 net120
*1959 net121
*1960 net122
*1961 net123
*1962 net124
*1963 net125
*1964 net126
*1965 net127
*1966 net128
*1967 net129
*1968 net13
*1969 net130
*1970 net131
*1971 net132
*1972 net133
*1973 net134
*1974 net135
*1975 net136
*1976 net137
*1977 net138
*1978 net139
*1979 net14
*1980 net140
*1981 net141
*1982 net142
*1983 net143
*1984 net144
*1985 net145
*1986 net146
*1987 net147
*1988 net148
*1989 net149
*1990 net15
*1991 net150
*1992 net151
*1993 net152
*1994 net153
*1995 net154
*1996 net155
*1997 net156
*1998 net157
*1999 net158
*2000 net159
*2001 net16
*2002 net160
*2003 net161
*2004 net162
*2005 net163
*2006 net164
*2007 net165
*2008 net166
*2009 net167
*2010 net168
*2011 net169
*2012 net17
*2013 net170
*2014 net171
*2015 net172
*2016 net173
*2017 net174
*2018 net175
*2019 net176
*2020 net177
*2021 net178
*2022 net179
*2023 net18
*2024 net180
*2025 net181
*2026 net182
*2027 net183
*2028 net184
*2029 net185
*2030 net186
*2031 net187
*2032 net188
*2033 net189
*2034 net19
*2035 net190
*2036 net191
*2037 net192
*2038 net193
*2039 net194
*2040 net195
*2041 net196
*2042 net197
*2043 net198
*2044 net199
*2045 net2
*2046 net20
*2047 net200
*2048 net201
*2049 net202
*2050 net203
*2051 net204
*2052 net205
*2053 net206
*2054 net207
*2055 net208
*2056 net209
*2057 net21
*2058 net210
*2059 net211
*2060 net212
*2061 net213
*2062 net214
*2063 net215
*2064 net216
*2065 net217
*2066 net218
*2067 net219
*2068 net22
*2069 net220
*2070 net221
*2071 net222
*2072 net223
*2073 net224
*2074 net225
*2075 net226
*2076 net227
*2077 net228
*2078 net229
*2079 net23
*2080 net230
*2081 net231
*2082 net232
*2083 net233
*2084 net234
*2085 net235
*2086 net236
*2087 net237
*2088 net238
*2089 net239
*2090 net24
*2091 net240
*2092 net241
*2093 net242
*2094 net243
*2095 net244
*2096 net245
*2097 net246
*2098 net247
*2099 net248
*2100 net249
*2101 net25
*2102 net250
*2103 net251
*2104 net252
*2105 net253
*2106 net254
*2107 net255
*2108 net256
*2109 net257
*2110 net258
*2111 net259
*2112 net26
*2113 net260
*2114 net261
*2115 net262
*2116 net263
*2117 net264
*2118 net265
*2119 net266
*2120 net267
*2121 net268
*2122 net269
*2123 net27
*2124 net270
*2125 net271
*2126 net272
*2127 net273
*2128 net274
*2129 net275
*2130 net276
*2131 net277
*2132 net278
*2133 net279
*2134 net28
*2135 net280
*2136 net281
*2137 net282
*2138 net283
*2139 net284
*2140 net285
*2141 net286
*2142 net287
*2143 net288
*2144 net289
*2145 net29
*2146 net290
*2147 net291
*2148 net292
*2149 net293
*2150 net294
*2151 net295
*2152 net296
*2153 net297
*2154 net298
*2155 net299
*2156 net3
*2157 net30
*2158 net300
*2159 net301
*2160 net302
*2161 net303
*2162 net304
*2163 net305
*2164 net306
*2165 net307
*2166 net308
*2167 net31
*2168 net32
*2169 net33
*2170 net34
*2171 net35
*2172 net36
*2173 net37
*2174 net38
*2175 net39
*2176 net4
*2177 net40
*2178 net41
*2179 net42
*2180 net43
*2181 net44
*2182 net45
*2183 net46
*2184 net47
*2185 net48
*2186 net49
*2187 net5
*2188 net50
*2189 net51
*2190 net52
*2191 net53
*2192 net54
*2193 net55
*2194 net56
*2195 net57
*2196 net58
*2197 net59
*2198 net6
*2199 net60
*2200 net61
*2201 net62
*2202 net63
*2203 net64
*2204 net65
*2205 net66
*2206 net67
*2207 net68
*2208 net69
*2209 net7
*2210 net70
*2211 net71
*2212 net72
*2213 net73
*2214 net74
*2215 net75
*2216 net76
*2217 net77
*2218 net78
*2219 net79
*2220 net8
*2221 net80
*2222 net81
*2223 net82
*2224 net83
*2225 net84
*2226 net85
*2227 net86
*2228 net87
*2229 net88
*2230 net89
*2231 net9
*2232 net90
*2233 net91
*2234 net92
*2235 net93
*2236 net94
*2237 net95
*2238 net96
*2239 net97
*2240 net98
*2241 net99
*2242 ANTENNA_1
*2243 ANTENNA_2
*2244 ANTENNA_3
*2245 ANTENNA_4
*2246 ANTENNA_5
*2247 FILLER_0_0_100
*2248 FILLER_0_0_104
*2249 FILLER_0_0_11
*2250 FILLER_0_0_111
*2251 FILLER_0_0_113
*2252 FILLER_0_0_121
*2253 FILLER_0_0_129
*2254 FILLER_0_0_137
*2255 FILLER_0_0_141
*2256 FILLER_0_0_146
*2257 FILLER_0_0_154
*2258 FILLER_0_0_162
*2259 FILLER_0_0_176
*2260 FILLER_0_0_189
*2261 FILLER_0_0_19
*2262 FILLER_0_0_223
*2263 FILLER_0_0_251
*2264 FILLER_0_0_268
*2265 FILLER_0_0_27
*2266 FILLER_0_0_276
*2267 FILLER_0_0_29
*2268 FILLER_0_0_293
*2269 FILLER_0_0_3
*2270 FILLER_0_0_301
*2271 FILLER_0_0_329
*2272 FILLER_0_0_335
*2273 FILLER_0_0_337
*2274 FILLER_0_0_348
*2275 FILLER_0_0_365
*2276 FILLER_0_0_37
*2277 FILLER_0_0_373
*2278 FILLER_0_0_380
*2279 FILLER_0_0_391
*2280 FILLER_0_0_393
*2281 FILLER_0_0_429
*2282 FILLER_0_0_45
*2283 FILLER_0_0_51
*2284 FILLER_0_0_55
*2285 FILLER_0_0_57
*2286 FILLER_0_0_62
*2287 FILLER_0_0_69
*2288 FILLER_0_0_83
*2289 FILLER_0_0_88
*2290 FILLER_0_0_96
*2291 FILLER_0_10_107
*2292 FILLER_0_10_11
*2293 FILLER_0_10_122
*2294 FILLER_0_10_130
*2295 FILLER_0_10_138
*2296 FILLER_0_10_165
*2297 FILLER_0_10_173
*2298 FILLER_0_10_181
*2299 FILLER_0_10_189
*2300 FILLER_0_10_19
*2301 FILLER_0_10_194
*2302 FILLER_0_10_200
*2303 FILLER_0_10_208
*2304 FILLER_0_10_216
*2305 FILLER_0_10_224
*2306 FILLER_0_10_232
*2307 FILLER_0_10_238
*2308 FILLER_0_10_249
*2309 FILLER_0_10_253
*2310 FILLER_0_10_261
*2311 FILLER_0_10_27
*2312 FILLER_0_10_276
*2313 FILLER_0_10_29
*2314 FILLER_0_10_291
*2315 FILLER_0_10_3
*2316 FILLER_0_10_306
*2317 FILLER_0_10_314
*2318 FILLER_0_10_322
*2319 FILLER_0_10_330
*2320 FILLER_0_10_337
*2321 FILLER_0_10_345