*SPEF "ieee 1481-1999"
*DESIGN "svm"
*DATE "11:11:11 Fri 11 11, 1111"
*VENDOR "OpenRCX"
*PROGRAM "Parallel Extraction"
*VERSION "1.0"
*DESIGN_FLOW "NAME_SCOPE LOCAL" "PIN_CAP NONE"
*DIVIDER /
*DELIMITER :
*BUS_DELIMITER []
*T_UNIT 1 NS
*C_UNIT 1 PF
*R_UNIT 1 OHM
*L_UNIT 1 HENRY

*NAME_MAP
*3 clk
*4 halt
*5 in_valid
*6 periodTop[0]
*7 periodTop[10]
*8 periodTop[11]
*9 periodTop[12]
*10 periodTop[13]
*11 periodTop[14]
*12 periodTop[15]
*13 periodTop[1]
*14 periodTop[2]
*15 periodTop[3]
*16 periodTop[4]
*17 periodTop[5]
*18 periodTop[6]
*19 periodTop[7]
*20 periodTop[8]
*21 periodTop[9]
*22 pwmA
*23 pwmB
*24 pwmC
*25 ready
*26 rstb
*27 vA[0]
*28 vA[10]
*29 vA[11]
*30 vA[12]
*31 vA[13]
*32 vA[14]
*33 vA[15]
*34 vA[1]
*35 vA[2]
*36 vA[3]
*37 vA[4]
*38 vA[5]
*39 vA[6]
*40 vA[7]
*41 vA[8]
*42 vA[9]
*43 vB[0]
*44 vB[10]
*45 vB[11]
*46 vB[12]
*47 vB[13]
*48 vB[14]
*49 vB[15]
*50 vB[1]
*51 vB[2]
*52 vB[3]
*53 vB[4]
*54 vB[5]
*55 vB[6]
*56 vB[7]
*57 vB[8]
*58 vB[9]
*59 vC[0]
*60 vC[10]
*61 vC[11]
*62 vC[12]
*63 vC[13]
*64 vC[14]
*65 vC[15]
*66 vC[1]
*67 vC[2]
*68 vC[3]
*69 vC[4]
*70 vC[5]
*71 vC[6]
*72 vC[7]
*73 vC[8]
*74 vC[9]
*75 _0000_
*76 _0001_
*77 _0002_
*78 _0091_
*79 _0092_
*80 _0093_
*81 _0094_
*82 _0095_
*83 _0096_
*84 _0097_
*85 _0098_
*86 _0099_
*87 _0100_
*88 _0101_
*89 _0102_
*90 _0103_
*91 _0104_
*92 _0105_
*93 _0106_
*94 _0107_
*95 _0108_
*96 _0109_
*97 _0110_
*98 _0111_
*99 _0112_
*100 _0113_
*101 _0114_
*102 _0115_
*103 _0116_
*104 _0117_
*105 _0118_
*106 _0119_
*107 _0120_
*108 _0121_
*109 _0122_
*110 _0123_
*111 _0124_
*112 _0125_
*113 _0126_
*114 _0127_
*115 _0128_
*116 _0129_
*117 _0130_
*118 _0131_
*119 _0132_
*120 _0133_
*121 _0134_
*122 _0135_
*123 _0136_
*124 _0137_
*125 _0138_
*126 _0139_
*127 _0140_
*128 _0141_
*129 _0142_
*130 _0143_
*131 _0144_
*132 _0145_
*133 _0146_
*134 _0147_
*135 _0148_
*136 _0149_
*137 _0150_
*138 _0151_
*139 _0152_
*140 _0153_
*141 _0154_
*142 _0155_
*143 _0156_
*144 _0157_
*145 _0158_
*146 _0159_
*147 _0160_
*148 _0161_
*149 _0162_
*150 _0163_
*151 _0164_
*152 _0165_
*153 _0166_
*154 _0167_
*155 _0168_
*156 _0169_
*157 _0170_
*158 _0171_
*159 _0172_
*160 _0173_
*161 _0174_
*162 _0175_
*163 _0176_
*164 _0177_
*165 _0178_
*166 _0179_
*167 _0180_
*168 _0181_
*169 _0182_
*170 _0183_
*171 _0184_
*172 _0185_
*173 _0186_
*174 _0187_
*175 _0188_
*176 _0189_
*177 _0190_
*178 _0191_
*179 _0192_
*180 _0193_
*181 _0194_
*182 _0195_
*183 _0196_
*184 _0197_
*185 _0198_
*186 _0199_
*187 _0200_
*188 _0201_
*189 _0202_
*190 _0203_
*191 _0204_
*192 _0205_
*193 _0206_
*194 _0207_
*195 _0208_
*196 _0209_
*197 _0210_
*198 _0211_
*199 _0212_
*200 _0213_
*201 _0214_
*202 _0215_
*203 _0216_
*204 _0217_
*205 _0218_
*206 _0219_
*207 _0220_
*208 _0221_
*209 _0222_
*210 _0223_
*211 _0224_
*212 _0225_
*213 _0226_
*214 _0227_
*215 _0228_
*216 _0229_
*217 _0230_
*218 _0231_
*219 _0232_
*220 _0233_
*221 _0234_
*222 _0235_
*223 _0236_
*224 _0237_
*225 _0238_
*226 _0239_
*227 _0240_
*228 _0241_
*229 _0242_
*230 _0243_
*231 _0244_
*232 _0245_
*233 _0246_
*234 _0247_
*235 _0248_
*236 _0249_
*237 _0250_
*238 _0251_
*239 _0252_
*240 _0253_
*241 _0254_
*242 _0255_
*243 _0256_
*244 _0257_
*245 _0258_
*246 _0259_
*247 _0260_
*248 _0261_
*249 _0262_
*250 _0263_
*251 _0264_
*252 _0265_
*253 _0266_
*254 _0267_
*255 _0268_
*256 _0269_
*257 _0270_
*258 _0271_
*259 _0272_
*260 _0273_
*261 _0274_
*262 _0275_
*263 _0276_
*264 _0277_
*265 _0278_
*266 _0279_
*267 _0280_
*268 _0281_
*269 _0282_
*270 _0283_
*271 _0284_
*272 _0285_
*273 _0286_
*274 _0287_
*275 _0288_
*276 _0289_
*277 _0290_
*278 _0291_
*279 _0292_
*280 _0293_
*281 _0294_
*282 _0295_
*283 _0296_
*284 _0297_
*285 _0298_
*286 _0299_
*287 _0300_
*288 _0301_
*289 _0302_
*290 _0303_
*291 _0304_
*292 _0305_
*293 _0306_
*294 _0307_
*295 _0308_
*296 _0309_
*297 _0310_
*298 _0311_
*299 _0312_
*300 _0313_
*301 _0314_
*302 _0315_
*303 _0316_
*304 _0317_
*305 _0318_
*306 _0319_
*307 _0320_
*308 _0321_
*309 _0322_
*310 _0323_
*311 _0324_
*312 _0325_
*313 _0326_
*314 _0327_
*315 _0328_
*316 _0329_
*317 _0330_
*318 _0331_
*319 _0332_
*320 _0333_
*321 _0334_
*322 _0335_
*323 _0336_
*324 _0337_
*325 _0338_
*326 _0339_
*327 _0340_
*328 _0341_
*329 _0342_
*330 _0343_
*331 _0344_
*332 _0345_
*333 _0346_
*334 _0347_
*335 _0348_
*336 _0349_
*337 _0350_
*338 _0351_
*339 _0352_
*340 _0353_
*341 _0354_
*342 _0355_
*343 _0356_
*344 _0357_
*345 _0358_
*346 _0359_
*347 _0360_
*348 _0361_
*349 _0362_
*350 _0363_
*351 _0364_
*352 _0365_
*353 _0366_
*354 _0367_
*355 _0368_
*356 _0369_
*357 _0370_
*358 _0371_
*359 _0372_
*360 _0373_
*361 _0374_
*362 _0375_
*363 _0376_
*364 _0377_
*365 _0378_
*366 _0379_
*367 _0380_
*368 _0381_
*369 _0382_
*370 _0383_
*371 _0384_
*372 _0385_
*373 _0386_
*374 _0387_
*375 _0388_
*376 _0389_
*377 _0390_
*378 _0391_
*379 _0392_
*380 _0393_
*381 _0394_
*382 _0395_
*383 _0396_
*384 _0397_
*385 _0398_
*386 _0399_
*387 _0400_
*388 _0401_
*389 _0402_
*390 _0403_
*391 _0404_
*392 _0405_
*393 _0406_
*394 _0407_
*395 _0408_
*396 _0409_
*397 _0410_
*398 _0411_
*399 _0412_
*400 _0413_
*401 _0414_
*402 _0415_
*403 _0416_
*404 _0417_
*405 _0418_
*406 _0419_
*407 _0420_
*408 _0421_
*409 _0422_
*410 _0423_
*411 _0424_
*412 _0425_
*413 _0426_
*414 _0427_
*415 _0428_
*416 _0429_
*417 _0430_
*418 _0431_
*419 _0432_
*420 _0433_
*421 _0434_
*422 _0435_
*423 _0436_
*424 _0437_
*425 _0438_
*426 _0439_
*427 _0440_
*428 _0441_
*429 _0442_
*430 _0443_
*431 _0444_
*432 _0445_
*433 _0446_
*434 _0447_
*435 _0448_
*436 _0449_
*437 _0450_
*438 _0451_
*439 _0452_
*440 _0453_
*441 _0454_
*442 _0455_
*443 _0456_
*444 _0457_
*445 _0458_
*446 _0459_
*447 _0460_
*448 _0461_
*449 _0462_
*450 _0463_
*451 _0464_
*452 _0465_
*453 _0466_
*454 _0467_
*455 _0468_
*456 _0469_
*457 _0470_
*458 _0471_
*459 _0472_
*460 _0473_
*461 _0474_
*462 _0475_
*463 _0476_
*464 _0477_
*465 _0478_
*466 _0479_
*467 _0480_
*468 _0481_
*469 _0482_
*470 _0483_
*471 _0484_
*472 _0485_
*473 _0486_
*474 _0487_
*475 _0488_
*476 _0489_
*477 _0490_
*478 _0491_
*479 _0492_
*480 _0493_
*481 _0494_
*482 _0495_
*483 _0496_
*484 _0497_
*485 _0498_
*486 _0499_
*487 _0500_
*488 _0501_
*489 _0502_
*490 _0503_
*491 _0504_
*492 _0505_
*493 _0506_
*494 _0507_
*495 _0508_
*496 _0509_
*497 _0510_
*498 _0511_
*499 _0512_
*500 _0513_
*501 _0514_
*502 _0515_
*503 _0516_
*504 _0517_
*505 _0518_
*506 _0519_
*507 _0520_
*508 _0521_
*509 _0522_
*510 _0523_
*511 _0524_
*512 _0525_
*513 _0526_
*514 _0527_
*515 _0528_
*516 _0529_
*517 _0530_
*518 _0531_
*519 _0532_
*520 _0533_
*521 _0534_
*522 _0535_
*523 _0536_
*524 _0537_
*525 _0538_
*526 _0539_
*527 _0540_
*528 _0541_
*529 _0542_
*530 _0543_
*531 _0544_
*532 _0545_
*533 _0546_
*534 _0547_
*535 _0548_
*536 _0549_
*537 _0550_
*538 _0551_
*539 _0552_
*540 _0553_
*541 _0554_
*542 _0555_
*543 _0556_
*544 _0557_
*545 _0558_
*546 _0559_
*547 _0560_
*548 _0561_
*549 _0562_
*550 _0563_
*551 _0564_
*552 _0565_
*553 _0566_
*554 _0567_
*555 _0568_
*556 _0569_
*557 _0570_
*558 _0571_
*559 _0572_
*560 _0573_
*561 _0574_
*562 _0575_
*563 _0576_
*564 _0577_
*565 _0578_
*566 _0579_
*567 _0580_
*568 _0581_
*569 _0582_
*570 _0583_
*571 _0584_
*572 _0585_
*573 _0586_
*574 _0587_
*575 _0588_
*576 _0589_
*577 _0590_
*578 _0591_
*579 _0592_
*580 _0593_
*581 _0594_
*582 _0595_
*583 _0596_
*584 _0597_
*585 _0598_
*586 _0599_
*587 _0600_
*588 _0601_
*589 _0602_
*590 _0603_
*591 _0604_
*592 _0605_
*593 _0606_
*594 _0607_
*595 _0608_
*596 _0609_
*597 _0610_
*598 _0611_
*599 _0612_
*600 _0613_
*601 _0614_
*602 _0615_
*603 _0616_
*604 _0617_
*605 _0618_
*606 _0619_
*607 _0620_
*608 _0621_
*609 _0622_
*610 _0623_
*611 _0624_
*612 _0625_
*613 _0626_
*614 _0627_
*615 _0628_
*616 _0629_
*617 _0630_
*618 _0631_
*619 _0632_
*620 _0633_
*621 _0634_
*622 _0635_
*623 _0636_
*624 _0637_
*625 _0638_
*626 _0639_
*627 _0640_
*628 _0641_
*629 _0642_
*630 _0643_
*631 _0644_
*632 _0645_
*633 _0646_
*634 _0647_
*635 _0648_
*636 _0649_
*637 _0650_
*638 _0651_
*639 _0652_
*640 _0653_
*641 _0654_
*642 _0655_
*643 _0656_
*644 _0657_
*645 _0658_
*646 _0659_
*647 _0660_
*648 _0661_
*649 _0662_
*650 _0663_
*651 _0664_
*652 _0665_
*653 _0666_
*654 _0667_
*655 _0668_
*656 _0669_
*657 _0670_
*658 _0671_
*659 _0672_
*660 _0673_
*661 _0674_
*662 _0675_
*663 _0676_
*664 _0677_
*665 _0678_
*666 _0679_
*667 _0680_
*668 _0681_
*669 _0682_
*670 _0683_
*671 _0684_
*672 _0685_
*673 _0686_
*674 _0687_
*675 _0688_
*676 _0689_
*677 _0690_
*678 _0691_
*679 _0692_
*680 _0693_
*681 _0694_
*682 _0695_
*683 _0696_
*684 _0697_
*685 _0698_
*686 _0699_
*687 _0700_
*688 _0701_
*689 _0702_
*690 _0703_
*691 _0704_
*692 _0705_
*693 _0706_
*694 _0707_
*695 _0708_
*696 _0709_
*697 _0710_
*698 _0711_
*699 _0712_
*700 _0713_
*701 _0714_
*702 _0715_
*703 _0716_
*704 _0717_
*705 _0718_
*706 _0719_
*707 _0720_
*708 _0721_
*709 _0722_
*710 _0723_
*711 _0724_
*712 _0725_
*713 _0726_
*714 _0727_
*715 _0728_
*716 _0729_
*717 _0730_
*718 _0731_
*719 _0732_
*720 _0733_
*721 _0734_
*722 _0735_
*723 _0736_
*724 _0737_
*725 _0738_
*726 _0739_
*727 _0740_
*728 _0741_
*729 _0742_
*730 _0743_
*731 _0744_
*732 _0745_
*733 _0746_
*734 _0747_
*735 _0748_
*736 _0749_
*737 _0750_
*738 _0751_
*739 _0752_
*740 _0753_
*741 _0754_
*742 _0755_
*743 _0756_
*744 _0757_
*745 _0758_
*746 _0759_
*747 _0760_
*748 _0761_
*749 _0762_
*750 _0763_
*751 _0764_
*752 _0765_
*753 _0766_
*754 _0767_
*755 _0768_
*756 _0769_
*757 _0770_
*758 _0771_
*759 _0772_
*760 _0773_
*761 _0774_
*762 _0775_
*763 _0776_
*764 _0777_
*765 _0778_
*766 _0779_
*767 _0780_
*768 _0781_
*769 _0782_
*770 _0783_
*771 _0784_
*772 _0785_
*773 _0786_
*774 _0787_
*775 _0788_
*776 _0789_
*777 _0790_
*778 _0791_
*779 _0792_
*780 _0793_
*781 _0794_
*782 _0795_
*783 _0796_
*784 _0797_
*785 _0798_
*786 _0799_
*787 _0800_
*788 _0801_
*789 _0802_
*790 _0803_
*791 _0804_
*792 _0805_
*793 _0806_
*794 _0807_
*795 _0808_
*796 _0809_
*797 _0810_
*798 _0811_
*799 _0812_
*800 _0813_
*801 _0814_
*802 _0815_
*803 _0816_
*804 _0817_
*805 _0818_
*806 _0819_
*807 _0820_
*808 _0821_
*809 _0822_
*810 _0823_
*811 _0824_
*812 _0825_
*813 _0826_
*814 _0827_
*815 _0828_
*816 _0829_
*817 _0830_
*818 _0831_
*819 _0832_
*820 _0833_
*821 _0834_
*822 _0835_
*823 _0836_
*824 _0837_
*825 _0838_
*826 _0839_
*827 _0840_
*828 _0841_
*829 _0842_
*830 _0843_
*831 _0844_
*832 _0845_
*833 _0846_
*834 _0847_
*835 _0848_
*836 _0849_
*837 _0850_
*838 _0851_
*839 _0852_
*840 _0853_
*841 _0854_
*842 _0855_
*843 _0856_
*844 _0857_
*845 _0858_
*846 _0859_
*847 _0860_
*848 _0861_
*849 _0862_
*850 _0863_
*851 _0864_
*852 _0865_
*853 _0866_
*854 _0867_
*855 _0868_
*856 _0869_
*857 _0870_
*858 _0871_
*859 _0872_
*860 _0873_
*861 _0874_
*862 _0875_
*863 _0876_
*864 _0877_
*865 _0878_
*866 _0879_
*867 _0880_
*868 _0881_
*869 _0882_
*870 _0883_
*871 _0884_
*872 _0885_
*873 _0886_
*874 _0887_
*875 _0888_
*876 _0889_
*877 _0890_
*878 _0891_
*879 _0892_
*880 _0893_
*881 _0894_
*882 _0895_
*883 _0896_
*884 _0897_
*885 _0898_
*886 _0899_
*887 _0900_
*888 _0901_
*889 _0902_
*890 _0903_
*891 _0904_
*892 _0905_
*893 _0906_
*894 _0907_
*895 _0908_
*896 _0909_
*897 _0910_
*898 _0911_
*899 _0912_
*900 _0913_
*901 _0914_
*902 _0915_
*903 _0916_
*904 _0917_
*905 _0918_
*906 _0919_
*907 _0920_
*908 _0921_
*909 _0922_
*910 _0923_
*911 _0924_
*912 _0925_
*913 _0926_
*914 _0927_
*915 _0928_
*916 _0929_
*917 _0930_
*918 _0931_
*919 _0932_
*920 _0933_
*921 _0934_
*922 _0935_
*923 _0936_
*924 _0937_
*925 _0938_
*926 _0939_
*927 _0940_
*928 _0941_
*929 _0942_
*930 _0943_
*931 _0944_
*932 _0945_
*933 _0946_
*934 _0947_
*935 _0948_
*936 _0949_
*937 _0950_
*938 _0951_
*939 _0952_
*940 _0953_
*941 _0954_
*942 _0955_
*943 _0956_
*944 _0957_
*945 _0958_
*946 _0959_
*947 _0960_
*948 _0961_
*949 _0962_
*950 _0963_
*951 _0964_
*952 _0965_
*953 _0966_
*954 _0967_
*955 _0968_
*956 _0969_
*957 _0970_
*958 _0971_
*959 _0972_
*960 _0973_
*961 _0974_
*962 _0975_
*963 _0976_
*964 _0977_
*965 _0978_
*966 _0979_
*967 _0980_
*968 _0981_
*969 _0982_
*970 _0983_
*971 _0984_
*972 _0985_
*973 _0986_
*974 _0987_
*975 _0988_
*976 _0989_
*977 _0990_
*978 _0991_
*979 _0992_
*980 _0993_
*981 _0994_
*982 _0995_
*983 _0996_
*984 _0997_
*985 _0998_
*986 _0999_
*987 _1000_
*988 _1001_
*989 _1002_
*990 _1003_
*991 _1004_
*992 _1005_
*993 _1006_
*994 _1007_
*995 _1008_
*996 _1009_
*997 _1010_
*998 _1011_
*999 _1012_
*1000 _1013_
*1001 _1014_
*1002 _1015_
*1003 _1016_
*1004 _1017_
*1005 _1018_
*1006 _1019_
*1007 _1020_
*1008 _1021_
*1009 _1022_
*1010 _1023_
*1011 _1024_
*1012 _1025_
*1013 _1026_
*1014 _1027_
*1015 _1028_
*1016 _1029_
*1017 _1030_
*1018 _1031_
*1019 _1032_
*1020 _1033_
*1021 _1034_
*1022 _1035_
*1023 _1036_
*1024 _1037_
*1025 _1038_
*1026 _1039_
*1027 _1040_
*1028 _1041_
*1029 _1042_
*1030 _1043_
*1031 _1044_
*1032 _1045_
*1033 _1046_
*1034 _1047_
*1035 _1048_
*1036 _1049_
*1037 _1050_
*1038 _1051_
*1039 _1052_
*1040 _1053_
*1041 _1054_
*1042 _1055_
*1043 _1056_
*1044 _1057_
*1045 _1058_
*1046 _1059_
*1047 _1060_
*1048 _1061_
*1049 _1062_
*1050 _1063_
*1051 _1064_
*1052 _1065_
*1053 _1066_
*1054 _1067_
*1055 _1068_
*1056 _1069_
*1057 _1070_
*1058 _1071_
*1059 _1072_
*1060 _1073_
*1061 _1074_
*1062 _1075_
*1063 _1076_
*1064 _1077_
*1065 _1078_
*1066 _1079_
*1067 _1080_
*1068 _1081_
*1069 _1082_
*1070 _1083_
*1071 _1084_
*1072 _1085_
*1073 _1086_
*1074 _1087_
*1075 _1088_
*1076 _1089_
*1077 _1090_
*1078 _1091_
*1079 _1092_
*1080 _1093_
*1081 _1094_
*1082 _1095_
*1083 _1096_
*1084 _1097_
*1085 _1098_
*1086 _1099_
*1087 _1100_
*1088 _1101_
*1089 _1102_
*1090 _1103_
*1091 _1104_
*1092 _1105_
*1093 _1106_
*1094 _1107_
*1095 _1108_
*1096 _1109_
*1097 _1110_
*1098 _1111_
*1099 _1112_
*1100 _1113_
*1101 _1114_
*1102 _1115_
*1103 _1116_
*1104 _1117_
*1105 _1118_
*1106 _1119_
*1107 _1120_
*1108 _1121_
*1109 _1122_
*1110 _1123_
*1111 _1124_
*1112 _1125_
*1113 _1126_
*1114 _1127_
*1115 _1128_
*1116 _1129_
*1117 _1130_
*1118 _1131_
*1119 _1132_
*1120 _1133_
*1121 _1134_
*1122 _1135_
*1123 _1136_
*1124 _1137_
*1125 _1138_
*1126 _1139_
*1127 _1140_
*1128 _1141_
*1129 _1142_
*1130 _1143_
*1131 _1144_
*1132 _1145_
*1133 _1146_
*1134 _1147_
*1135 _1148_
*1136 _1149_
*1137 _1150_
*1138 _1151_
*1139 _1152_
*1140 _1153_
*1141 _1154_
*1142 _1155_
*1143 _1156_
*1144 _1157_
*1145 _1158_
*1146 _1159_
*1147 _1160_
*1148 _1161_
*1149 _1162_
*1150 _1163_
*1151 _1164_
*1152 _1165_
*1153 _1166_
*1154 _1167_
*1155 _1168_
*1156 _1169_
*1157 _1170_
*1158 _1171_
*1159 _1172_
*1160 _1173_
*1161 _1174_
*1162 _1175_
*1163 _1176_
*1164 _1177_
*1165 _1178_
*1166 _1179_
*1167 _1180_
*1168 _1181_
*1169 _1182_
*1170 _1183_
*1171 _1184_
*1172 _1185_
*1173 _1186_
*1174 _1187_
*1175 _1188_
*1176 _1189_
*1177 _1190_
*1178 _1191_
*1179 _1192_
*1180 _1193_
*1181 _1194_
*1182 _1195_
*1183 _1196_
*1184 _1197_
*1185 _1198_
*1186 _1199_
*1187 _1200_
*1188 _1201_
*1189 _1202_
*1190 _1203_
*1191 _1204_
*1192 _1205_
*1193 _1206_
*1194 _1207_
*1195 _1208_
*1196 _1209_
*1197 _1210_
*1198 _1211_
*1199 _1212_
*1200 _1213_
*1201 _1214_
*1202 _1215_
*1203 _1216_
*1204 _1217_
*1205 _1218_
*1206 _1219_
*1207 _1220_
*1208 _1221_
*1209 _1222_
*1210 _1223_
*1211 _1224_
*1212 _1225_
*1213 _1226_
*1214 _1227_
*1215 _1228_
*1216 _1229_
*1217 _1230_
*1218 _1231_
*1219 _1232_
*1220 _1233_
*1221 _1234_
*1222 _1235_
*1223 _1236_
*1224 _1237_
*1225 _1238_
*1226 _1239_
*1227 _1240_
*1228 _1241_
*1229 _1242_
*1230 _1243_
*1231 _1244_
*1232 _1245_
*1233 _1246_
*1234 _1247_
*1235 _1248_
*1236 _1249_
*1237 _1250_
*1238 _1251_
*1239 _1252_
*1240 _1253_
*1241 _1254_
*1242 _1255_
*1243 _1256_
*1244 _1257_
*1245 _1258_
*1246 _1259_
*1247 _1260_
*1248 _1261_
*1249 _1262_
*1250 _1263_
*1251 _1264_
*1252 _1265_
*1253 _1266_
*1254 _1267_
*1255 _1268_
*1256 _1269_
*1257 _1270_
*1258 _1271_
*1259 _1272_
*1260 _1273_
*1261 _1274_
*1262 _1275_
*1263 _1276_
*1264 _1277_
*1265 _1278_
*1266 _1279_
*1267 _1280_
*1268 _1281_
*1269 _1282_
*1270 _1283_
*1271 _1284_
*1272 _1285_
*1273 _1286_
*1274 _1287_
*1275 _1288_
*1276 _1289_
*1277 _1290_
*1278 _1291_
*1279 _1292_
*1280 _1293_
*1281 _1294_
*1282 _1295_
*1283 _1296_
*1284 _1297_
*1285 _1298_
*1286 _1299_
*1287 _1300_
*1288 _1301_
*1289 _1302_
*1290 _1303_
*1291 _1304_
*1292 _1305_
*1293 _1306_
*1294 _1307_
*1295 _1308_
*1296 _1309_
*1297 _1310_
*1298 _1311_
*1299 _1312_
*1300 _1313_
*1301 _1314_
*1302 _1315_
*1303 _1316_
*1304 _1317_
*1305 _1318_
*1306 _1319_
*1307 _1320_
*1308 _1321_
*1309 _1322_
*1310 _1323_
*1311 _1324_
*1312 _1325_
*1313 _1326_
*1314 _1327_
*1315 _1328_
*1316 _1329_
*1317 _1330_
*1318 _1331_
*1319 _1332_
*1320 _1333_
*1321 _1334_
*1322 _1335_
*1323 _1336_
*1324 _1337_
*1325 _1338_
*1326 _1339_
*1327 _1340_
*1328 _1341_
*1329 _1342_
*1330 _1343_
*1331 _1344_
*1332 _1345_
*1333 _1346_
*1334 _1347_
*1335 _1348_
*1336 _1349_
*1337 _1350_
*1338 _1351_
*1339 _1352_
*1340 _1353_
*1341 _1354_
*1342 _1355_
*1343 _1356_
*1344 _1357_
*1345 _1358_
*1346 _1359_
*1347 _1360_
*1348 _1361_
*1349 _1362_
*1350 _1363_
*1351 _1364_
*1352 _1365_
*1353 _1366_
*1354 _1367_
*1355 _1368_
*1356 _1369_
*1357 _1370_
*1358 _1371_
*1359 _1372_
*1360 _1373_
*1361 _1374_
*1362 _1375_
*1363 _1376_
*1364 _1377_
*1365 _1378_
*1366 _1379_
*1367 _1380_
*1368 _1381_
*1369 _1382_
*1370 _1383_
*1371 _1384_
*1372 _1385_
*1373 _1386_
*1374 _1387_
*1375 _1388_
*1376 _1389_
*1377 _1390_
*1378 _1391_
*1379 _1392_
*1380 _1393_
*1381 _1394_
*1382 _1395_
*1383 _1396_
*1384 _1397_
*1385 _1398_
*1386 _1399_
*1387 _1400_
*1388 _1401_
*1389 _1402_
*1390 _1403_
*1391 _1404_
*1392 _1405_
*1393 _1406_
*1394 _1407_
*1395 _1408_
*1396 _1409_
*1397 _1410_
*1398 _1411_
*1399 _1412_
*1400 _1413_
*1401 _1414_
*1402 _1415_
*1403 _1416_
*1404 _1417_
*1405 _1418_
*1406 _1419_
*1407 _1420_
*1408 _1421_
*1409 _1422_
*1410 _1423_
*1411 _1424_
*1412 _1425_
*1413 _1426_
*1414 _1427_
*1415 _1428_
*1416 _1429_
*1417 _1430_
*1418 _1431_
*1419 _1432_
*1420 _1433_
*1421 _1434_
*1422 _1435_
*1423 _1436_
*1424 _1437_
*1425 _1438_
*1426 _1439_
*1427 _1440_
*1428 _1441_
*1429 _1442_
*1430 _1443_
*1431 _1444_
*1432 _1445_
*1433 _1446_
*1434 _1447_
*1435 _1448_
*1436 _1449_
*1437 _1450_
*1438 _1451_
*1439 _1452_
*1440 _1453_
*1441 _1454_
*1442 _1455_
*1443 _1456_
*1444 _1457_
*1445 _1458_
*1446 _1459_
*1447 _1460_
*1448 _1461_
*1449 _1462_
*1450 _1463_
*1451 _1464_
*1452 _1465_
*1453 _1466_
*1454 _1467_
*1455 _1468_
*1456 _1469_
*1457 _1470_
*1458 _1471_
*1459 _1472_
*1460 _1473_
*1461 _1474_
*1462 _1475_
*1463 _1476_
*1464 _1477_
*1465 _1478_
*1466 _1479_
*1467 _1480_
*1468 _1481_
*1469 _1482_
*1470 _1483_
*1471 _1484_
*1472 _1485_
*1473 _1486_
*1474 _1487_
*1475 _1488_
*1476 _1489_
*1477 _1490_
*1478 _1491_
*1479 _1492_
*1480 _1493_
*1481 _1494_
*1482 _1495_
*1483 _1496_
*1484 _1497_
*1485 _1498_
*1486 _1499_
*1487 _1500_
*1488 _1501_
*1489 _1502_
*1490 _1503_
*1491 _1504_
*1492 _1505_
*1493 _1506_
*1494 _1507_
*1495 _1508_
*1496 _1509_
*1497 _1510_
*1498 _1511_
*1499 _1512_
*1500 _1513_
*1501 _1514_
*1502 _1515_
*1503 _1516_
*1504 _1517_
*1505 _1518_
*1506 _1519_
*1507 _1520_
*1508 _1521_
*1509 _1522_
*1510 _1523_
*1511 _1524_
*1512 _1525_
*1513 _1526_
*1514 _1527_
*1515 _1528_
*1516 _1529_
*1517 _1530_
*1518 _1531_
*1519 _1532_
*1520 _1533_
*1521 _1534_
*1522 _1535_
*1523 _1536_
*1524 _1537_
*1525 _1538_
*1526 _1539_
*1527 _1540_
*1528 _1541_
*1529 _1542_
*1530 _1543_
*1531 _1544_
*1532 _1545_
*1533 _1546_
*1534 _1547_
*1535 _1548_
*1536 _1549_
*1537 _1550_
*1538 _1551_
*1539 _1552_
*1540 _1553_
*1541 _1554_
*1542 _1555_
*1543 _1556_
*1544 _1557_
*1545 _1558_
*1546 _1559_
*1547 _1560_
*1548 _1561_
*1549 _1562_
*1550 _1563_
*1551 _1564_
*1552 _1565_
*1553 _1566_
*1554 _1567_
*1555 _1568_
*1556 _1569_
*1557 _1570_
*1558 _1571_
*1559 _1572_
*1560 _1573_
*1561 _1574_
*1562 _1575_
*1563 _1576_
*1564 _1577_
*1565 _1578_
*1566 _1579_
*1567 _1580_
*1568 _1581_
*1569 _1582_
*1570 _1583_
*1571 _1584_
*1572 _1585_
*1573 _1586_
*1574 _1587_
*1575 _1588_
*1576 _1589_
*1577 _1590_
*1578 _1591_
*1579 _1592_
*1580 _1593_
*1581 _1594_
*1582 _1595_
*1583 _1596_
*1584 _1597_
*1585 _1598_
*1586 _1599_
*1587 _1600_
*1588 _1601_
*1589 _1602_
*1590 _1603_
*1591 _1604_
*1592 _1605_
*1593 _1606_
*1594 _1607_
*1595 _1608_
*1596 _1609_
*1597 _1610_
*1598 _1611_
*1599 _1612_
*1600 _1613_
*1601 _1614_
*1602 _1615_
*1603 _1616_
*1604 _1617_
*1605 _1618_
*1606 _1619_
*1607 _1620_
*1608 _1621_
*1609 _1622_
*1610 _1623_
*1611 _1624_
*1612 _1625_
*1613 _1626_
*1614 _1627_
*1615 _1628_
*1616 _1629_
*1617 _1630_
*1618 _1631_
*1619 _1632_
*1620 _1633_
*1621 _1634_
*1622 _1635_
*1623 _1636_
*1624 _1637_
*1625 _1638_
*1626 _1639_
*1627 _1640_
*1628 _1641_
*1629 _1642_
*1630 _1643_
*1631 _1644_
*1632 _1645_
*1633 _1646_
*1634 _1647_
*1635 _1648_
*1636 _1649_
*1637 _1650_
*1638 _1651_
*1639 _1652_
*1640 _1653_
*1641 _1654_
*1642 _1655_
*1643 _1656_
*1644 _1657_
*1645 _1658_
*1646 _1659_
*1647 _1660_
*1648 _1661_
*1649 _1662_
*1650 _1663_
*1651 _1664_
*1652 _1665_
*1653 _1666_
*1654 _1667_
*1655 _1668_
*1656 _1669_
*1657 _1670_
*1658 _1671_
*1659 _1672_
*1660 _1673_
*1661 _1674_
*1662 _1675_
*1663 _1676_
*1664 _1677_
*1665 _1678_
*1666 _1679_
*1667 _1680_
*1668 _1681_
*1669 _1682_
*1670 _1683_
*1671 _1684_
*1672 _1685_
*1673 _1686_
*1674 _1687_
*1675 _1688_
*1676 _1689_
*1677 _1690_
*1678 _1691_
*1679 _1692_
*1680 _1693_
*1681 _1694_
*1682 _1695_
*1683 _1696_
*1684 _1697_
*1685 _1698_
*1686 _1699_
*1687 _1700_
*1688 _1701_
*1689 _1702_
*1690 _1703_
*1691 _1704_
*1692 _1705_
*1693 _1706_
*1694 _1707_
*1695 _1708_
*1696 _1709_
*1697 _1710_
*1698 _1711_
*1699 _1712_
*1700 _1713_
*1701 _1714_
*1702 _1715_
*1703 _1716_
*1704 _1717_
*1705 _1718_
*1706 _1719_
*1707 _1720_
*1708 _1721_
*1709 _1722_
*1710 _1723_
*1711 _1724_
*1712 _1725_
*1713 _1726_
*1714 _1727_
*1715 _1728_
*1716 _1729_
*1717 _1730_
*1718 _1731_
*1719 _1732_
*1720 _1733_
*1721 _1734_
*1722 _1735_
*1723 _1736_
*1724 _1737_
*1725 _1738_
*1726 _1739_
*1727 _1740_
*1728 _1741_
*1729 _1742_
*1730 _1743_
*1731 _1744_
*1732 _1745_
*1733 _1746_
*1734 _1747_
*1735 _1748_
*1736 _1749_
*1737 _1750_
*1738 _1751_
*1739 _1752_
*1740 _1753_
*1741 _1754_
*1742 _1755_
*1743 _1756_
*1744 _1757_
*1745 _1758_
*1746 _1759_
*1747 _1760_
*1748 _1761_
*1749 _1762_
*1750 _1763_
*1751 _1764_
*1752 _1765_
*1753 _1766_
*1754 _1767_
*1755 _1768_
*1756 _1769_
*1757 _1770_
*1758 _1771_
*1759 _1772_
*1760 _1773_
*1761 _1774_
*1762 _1775_
*1763 _1776_
*1764 _1777_
*1765 _1778_
*1766 _1779_
*1767 _1780_
*1768 _1781_
*1769 _1782_
*1770 _1783_
*1771 _1784_
*1772 _1785_
*1773 _1786_
*1774 _1787_
*1775 _1788_
*1776 _1789_
*1777 _1790_
*1778 _1791_
*1779 _1792_
*1780 _1793_
*1781 _1794_
*1782 _1795_
*1783 _1796_
*1784 _1797_
*1785 _1798_
*1786 _1799_
*1787 _1800_
*1788 _1801_
*1789 _1802_
*1790 _1803_
*1791 _1804_
*1792 _1805_
*1793 _1806_
*1794 _1807_
*1795 _1808_
*1796 _1809_
*1797 _1810_
*1798 _1811_
*1799 _1812_
*1800 _1813_
*1801 _1814_
*1802 _1815_
*1803 _1816_
*1804 _1817_
*1805 _1818_
*1806 _1819_
*1807 _1820_
*1808 _1821_
*1809 _1822_
*1810 _1823_
*1811 _1824_
*1812 _1825_
*1813 _1826_
*1814 _1827_
*1815 _1828_
*1816 _1829_
*1817 _1830_
*1818 _1831_
*1819 _1832_
*1820 _1833_
*1821 _1834_
*1822 _1835_
*1823 _1836_
*1824 _1837_
*1825 _1838_
*1826 _1839_
*1827 _1840_
*1828 _1841_
*1829 _1842_
*1830 _1843_
*1831 _1844_
*1832 _1845_
*1833 _1846_
*1834 _1847_
*1835 _1848_
*1836 _1849_
*1837 _1850_
*1838 _1851_
*1839 _1852_
*1840 _1853_
*1841 _1854_
*1842 _1855_
*1843 _1856_
*1844 _1857_
*1845 _1858_
*1846 _1859_
*1847 _1860_
*1848 _1861_
*1849 _1862_
*1850 _1863_
*1851 _1864_
*1852 _1865_
*1853 _1866_
*1854 _1867_
*1855 _1868_
*1856 _1869_
*1857 _1870_
*1858 _1871_
*1859 _1872_
*1860 _1873_
*1861 _1874_
*1862 _1875_
*1863 _1876_
*1864 _1877_
*1865 _1878_
*1866 _1879_
*1867 _1880_
*1868 _1881_
*1869 _1882_
*1870 _1883_
*1871 _1884_
*1872 _1885_
*1873 _1886_
*1874 _1887_
*1875 _1888_
*1876 _1889_
*1877 _1890_
*1878 _1891_
*1879 _1892_
*1880 _1893_
*1881 _1894_
*1882 _1895_
*1883 _1896_
*1884 _1897_
*1885 _1898_
*1886 _1899_
*1887 _1900_
*1888 calc_ready
*1889 clknet_0_clk
*1890 clknet_3_0__leaf_clk
*1891 clknet_3_1__leaf_clk
*1892 clknet_3_2__leaf_clk
*1893 clknet_3_3__leaf_clk
*1894 clknet_3_4__leaf_clk
*1895 clknet_3_5__leaf_clk
*1896 clknet_3_6__leaf_clk
*1897 clknet_3_7__leaf_clk
*1898 counter\[0\]
*1899 counter\[10\]
*1900 counter\[11\]
*1901 counter\[12\]
*1902 counter\[13\]
*1903 counter\[14\]
*1904 counter\[15\]
*1905 counter\[1\]
*1906 counter\[2\]
*1907 counter\[3\]
*1908 counter\[4\]
*1909 counter\[5\]
*1910 counter\[6\]
*1911 counter\[7\]
*1912 counter\[8\]
*1913 counter\[9\]
*1914 delta\[0\]
*1915 delta\[10\]
*1916 delta\[11\]
*1917 delta\[12\]
*1918 delta\[13\]
*1919 delta\[14\]
*1920 delta\[15\]
*1921 delta\[1\]
*1922 delta\[2\]
*1923 delta\[3\]
*1924 delta\[4\]
*1925 delta\[5\]
*1926 delta\[6\]
*1927 delta\[7\]
*1928 delta\[8\]
*1929 delta\[9\]
*1930 net1
*1931 net10
*1932 net100
*1933 net101
*1934 net102
*1935 net103
*1936 net104
*1937 net105
*1938 net106
*1939 net107
*1940 net108
*1941 net109
*1942 net11
*1943 net110
*1944 net111
*1945 net112
*1946 net113
*1947 net114
*1948 net115
*1949 net116
*1950 net117
*1951 net118
*1952 net119
*1953 net12
*1954 net120
*1955 net121
*1956 net122
*1957 net123
*1958 net124
*1959 net125
*1960 net126
*1961 net127
*1962 net128
*1963 net129
*1964 net13
*1965 net130
*1966 net131
*1967 net132
*1968 net133
*1969 net134
*1970 net135
*1971 net136
*1972 net137
*1973 net138
*1974 net139
*1975 net14
*1976 net140
*1977 net141
*1978 net142
*1979 net143
*1980 net144
*1981 net145
*1982 net146
*1983 net147
*1984 net148
*1985 net149
*1986 net15
*1987 net150
*1988 net151
*1989 net152
*1990 net153
*1991 net154
*1992 net155
*1993 net156
*1994 net157
*1995 net158
*1996 net159
*1997 net16
*1998 net160
*1999 net161
*2000 net162
*2001 net163
*2002 net164
*2003 net165
*2004 net166
*2005 net167
*2006 net168
*2007 net169
*2008 net17
*2009 net170
*2010 net171
*2011 net172
*2012 net173
*2013 net174
*2014 net175
*2015 net176
*2016 net177
*2017 net178
*2018 net179
*2019 net18
*2020 net180
*2021 net181
*2022 net182
*2023 net183
*2024 net184
*2025 net185
*2026 net186
*2027 net187
*2028 net188
*2029 net189
*2030 net19
*2031 net190
*2032 net191
*2033 net192
*2034 net193
*2035 net194
*2036 net195
*2037 net196
*2038 net197
*2039 net198
*2040 net199
*2041 net2
*2042 net20
*2043 net200
*2044 net201
*2045 net202
*2046 net203
*2047 net204
*2048 net205
*2049 net206
*2050 net207
*2051 net208
*2052 net209
*2053 net21
*2054 net210
*2055 net211
*2056 net212
*2057 net213
*2058 net214
*2059 net215
*2060 net216
*2061 net217
*2062 net218
*2063 net219
*2064 net22
*2065 net220
*2066 net221
*2067 net222
*2068 net223
*2069 net224
*2070 net225
*2071 net226
*2072 net227
*2073 net228
*2074 net229
*2075 net23
*2076 net230
*2077 net231
*2078 net232
*2079 net233
*2080 net234
*2081 net235
*2082 net236
*2083 net237
*2084 net238
*2085 net239
*2086 net24
*2087 net240
*2088 net241
*2089 net242
*2090 net243
*2091 net244
*2092 net245
*2093 net246
*2094 net247
*2095 net248
*2096 net249
*2097 net25
*2098 net250
*2099 net251
*2100 net252
*2101 net253
*2102 net254
*2103 net255
*2104 net256
*2105 net257
*2106 net258
*2107 net259
*2108 net26
*2109 net260
*2110 net261
*2111 net262
*2112 net263
*2113 net264
*2114 net265
*2115 net266
*2116 net267
*2117 net268
*2118 net269
*2119 net27
*2120 net270
*2121 net271
*2122 net272
*2123 net273
*2124 net274
*2125 net275
*2126 net276
*2127 net277
*2128 net278
*2129 net279
*2130 net28
*2131 net280
*2132 net281
*2133 net282
*2134 net283
*2135 net284
*2136 net285
*2137 net286
*2138 net287
*2139 net288
*2140 net289
*2141 net29
*2142 net290
*2143 net291
*2144 net292
*2145 net293
*2146 net294
*2147 net295
*2148 net296
*2149 net297
*2150 net298
*2151 net299
*2152 net3
*2153 net30
*2154 net300
*2155 net301
*2156 net302
*2157 net303
*2158 net31
*2159 net32
*2160 net33
*2161 net34
*2162 net35
*2163 net36
*2164 net37
*2165 net38
*2166 net39
*2167 net4
*2168 net40
*2169 net41
*2170 net42
*2171 net43
*2172 net44
*2173 net45
*2174 net46
*2175 net47
*2176 net48
*2177 net49
*2178 net5
*2179 net50
*2180 net51
*2181 net52
*2182 net53
*2183 net54
*2184 net55
*2185 net56
*2186 net57
*2187 net58
*2188 net59
*2189 net6
*2190 net60
*2191 net61
*2192 net62
*2193 net63
*2194 net64
*2195 net65
*2196 net66
*2197 net67
*2198 net68
*2199 net69
*2200 net7
*2201 net70
*2202 net71
*2203 net72
*2204 net73
*2205 net74
*2206 net75
*2207 net76
*2208 net77
*2209 net78
*2210 net79
*2211 net8
*2212 net80
*2213 net81
*2214 net82
*2215 net83
*2216 net84
*2217 net85
*2218 net86
*2219 net87
*2220 net88
*2221 net89
*2222 net9
*2223 net90
*2224 net91
*2225 net92
*2226 net93
*2227 net94
*2228 net95
*2229 net96
*2230 net97
*2231 net98
*2232 net99
*2233 rising
*2234 state\[0\]
*2235 state\[1\]
*2236 state\[2\]
*2237 state\[3\]
*2238 state\[4\]
*2239 tA\[0\]
*2240 tA\[10\]
*2241 tA\[11\]
*2242 tA\[12\]
*2243 tA\[13\]
*2244 tA\[14\]
*2245 tA\[15\]
*2246 tA\[1\]
*2247 tA\[2\]
*2248 tA\[3\]
*2249 tA\[4\]
*2250 tA\[5\]
*2251 tA\[6\]
*2252 tA\[7\]
*2253 tA\[8\]
*2254 tA\[9\]
*2255 tB\[0\]
*2256 tB\[10\]
*2257 tB\[11\]
*2258 tB\[12\]
*2259 tB\[13\]
*2260 tB\[14\]
*2261 tB\[15\]
*2262 tB\[1\]
*2263 tB\[2\]
*2264 tB\[3\]
*2265 tB\[4\]
*2266 tB\[5\]
*2267 tB\[6\]
*2268 tB\[7\]
*2269 tB\[8\]
*2270 tB\[9\]
*2271 tC\[0\]
*2272 tC\[10\]
*2273 tC\[11\]
*2274 tC\[12\]
*2275 tC\[13\]
*2276 tC\[14\]
*2277 tC\[15\]
*2278 tC\[1\]
*2279 tC\[2\]
*2280 tC\[3\]
*2281 tC\[4\]
*2282 tC\[5\]
*2283 tC\[6\]
*2284 tC\[7\]
*2285 tC\[8\]
*2286 tC\[9\]
*2287 ANTENNA_1
*2288 ANTENNA_2
*2289 ANTENNA_3
*2290 ANTENNA_4
*2291 ANTENNA_5
*2292 ANTENNA_6
*2293 ANTENNA_7
*2294 ANTENNA_8
*2295 FILLER_0_0_104
*2296 FILLER_0_0_11
*2297 FILLER_0_0_111
*2298 FILLER_0_0_113
*2299 FILLER_0_0_121
*2300 FILLER_0_0_126
*2301 FILLER_0_0_134
*2302 FILLER_0_0_141
*2303 FILLER_0_0_149
*2304 FILLER_0_0_157
*2305 FILLER_0_0_165
*2306 FILLER_0_0_169
*2307 FILLER_0_0_177
*2308 FILLER_0_0_185
*2309 FILLER_0_0_19
*2310 FILLER_0_0_193
*2311 FILLER_0_0_197
*2312 FILLER_0_0_205
*2313 FILLER_0_0_216
*2314 FILLER_0_0_225
*2315 FILLER_0_0_230
*2316 FILLER_0_0_237
*2317 FILLER_0_0_251
*2318 FILLER_0_0_253
*2319 FILLER_0_0_261
*2320 FILLER_0_0_269
*2321 FILLER_0_0_27
*2322 FILLER_0_0_277
*2323 FILLER_0_0_281
*2324 FILLER_0_0_289
*2325 FILLER_0_0_29